ELEMENTS

Ar
H
N

END


SPECIES

H        ! SMILES: [H]               ChI: InChI=1S/H
H2       ! SMILES: [H][H]            ChI: InChI=1S/H2/h1H
N2       ! SMILES: N#N               ChI: InChI=1S/N2/c1-2
AR       ! SMILES: [Ar]              ChI: InChI=1S/Ar
N2H2     ! SMILES: N=N               ChI: InChI=1S/H2N2/c1-2/h1-2H
H2NN     ! SMILES: N[N]              ChI: InChI=1S/H2N2/c1-2/h1H2
NH3      ! SMILES: N                 ChI: InChI=1S/H3N/h1H3
N2H4     ! SMILES: NN                ChI: InChI=1S/H4N2/c1-2/h1-2H2
N        ! SMILES: [N]               ChI: InChI=1S/N
NH       ! SMILES: [NH]              ChI: InChI=1S/HN/h1H
NNH      ! SMILES: [N][N][H]         ChI: InChI=1S/HN2/c1-2/h1H
NH2      ! SMILES: [NH2]             ChI: InChI=1S/H2N/h1H2
N2H3     ! SMILES: N[N][H]           ChI: InChI=1S/H3N2/c1-2/h1H,2H2

END


THERMO
200.00    1000.00   5000.000

AR                G 5/97AR  1  0    0      0G    200.00   6000.00 1000.00      1
 2.50000000E+00 0.00000000E+00 0.00000000E+00 0.00000000E+00 0.00000000E+00    2
-7.45375000E+02 4.37967491E+00 2.50000000E+00 0.00000000E+00 0.00000000E+00    3
 0.00000000E+00 0.00000000E+00-7.45375000E+02 4.37967491E+00                   4
N2                G 8/02N   2    0    0    0G    200.00   6000.00 1000.00      1
 2.95257637E+00 1.39690040E-03-4.92631603E-07 7.86010195E-11-4.60755204E-15    2
-9.23948688E+02 5.87188762E+00 3.53100528E+00-1.23660988E-04-5.02999433E-07    3
 2.43530612E-09-1.40881235E-12-1.04697628E+03 2.96747038E+00                   4
N                 120186N   1               G    300.00   5000.00 1000.00      1
 2.45026800E+00 1.06614600E-04-7.46533700E-08 1.87965200E-11-1.02598400E-15    2
 5.61160400E+04 4.44875800E+00 2.50307100E+00-2.18001800E-05 5.42052900E-08    3
-5.64756000E-11 2.09990400E-14 5.60989000E+04 4.16756600E+00                   4
H2                TPIS78H   2    0    0    0G    200.00   6000.00 1000.00      1
 2.93286575E+00 8.26608026E-04-1.46402364E-07 1.54100414E-11-6.88804800E-16    2
-8.13065581E+02-1.02432865E+00 2.34433112E+00 7.98052075E-03-1.94781510E-05    3
 2.01572094E-08-7.37611761E-12-9.17935173E+02 6.83010238E-01                   4
H                 L 6/94H   1    0    0    0G    200.00   6000.00 1000.00      1
 2.50000000E+00 0.00000000E+00 0.00000000E+00 0.00000000E+00 0.00000000E+00    2
 2.54736600E+04-4.46682850E-01 2.50000000E+00 0.00000000E+00 0.00000000E+00    3
 0.00000000E+00 0.00000000E+00 2.54736600E+04-4.46682850E-01                   4
NH3                     H   3N   1          G    298.15   3000.00 1000.00      1
 1.07096958E+00 8.75466951E-03-3.33525419E-06 4.72015791E-10-1.13562571E-14    2
-5.77168689E+03 1.49517392E+01 3.26650510E+00 3.05892867E-03 5.78755223E-07    3
 9.49077412E-10-9.02221969E-13-6.36511405E+03 3.58794921E+00                   4
NH2                     H   2N   1          G    298.15   3000.00 1000.00      1
 2.62839610E+00 3.44379888E-03-1.08606365E-06 1.50714038E-10-4.59423280E-15    2
 2.15909586E+04 7.65372613E+00 3.97883538E+00-5.13888088E-04 2.68436156E-06    3
-9.18832600E-10-9.82251152E-14 2.12486673E+04 7.77619668E-01                   4
NH                      H   1N   1          G    298.15   3000.00 1000.00      1
 2.95100955E+00 9.09994439E-04-8.35582439E-08-5.17312027E-11 1.13981436E-14    2
 4.19707045E+04 4.83056694E+00 3.44697209E+00 5.57847818E-04-2.00289360E-06    3
 2.85952922E-09-1.12434284E-12 4.17899268E+04 2.02990852E+00                   4
NNH                     H   1N   2          G    298.15   3000.00 1000.00      1
 2.90981142E+00 4.44718211E-03-1.82919152E-06 3.64004342E-10-3.13273352E-14    2
 2.92696472E+04 9.11653812E+00 4.09254871E+00-2.37173287E-03 1.15311297E-05    3
-1.06308423E-08 3.23937580E-12 2.91374980E+04 3.93250587E+00                   4
H2NN                    H   2N   2          G    298.15   3000.00 1000.00      1
 1.46257631E+00 1.01013888E-02-5.16789506E-06 1.27606779E-09-1.22332550E-13    2
 3.55918510E+04 1.51070949E+01 3.87707453E+00-2.65244519E-03 1.86066175E-05    3
-1.76694483E-08 5.38800676E-12 3.52637434E+04 4.23249694E+00                   4
N2H2                    H   2N   2          G    298.15   3000.00 1000.00      1
 1.53340891E+00 9.32034303E-03-4.46173127E-06 1.03777534E-09-9.45361252E-14    2
 2.36253236E+04 1.48958722E+01 4.06590870E+00-4.34024418E-03 2.13250316E-05    3
-1.96839880E-08 5.96855172E-12 2.32953530E+04 3.56067162E+00                   4
N2H3                    H   3N   2          G    298.15   3000.00 1000.00      1
 3.20302281E+00 7.99162955E-03-3.10892955E-06 5.91433018E-10-4.34549709E-14    2
 2.58689598E+04 8.45902214E+00 3.80271862E+00 5.52764141E-03 6.84860021E-07    3
-2.00296493E-09 6.21445742E-13 2.57522809E+04 5.58213774E+00                   4
N2H4                    H   4N   2          G    298.15   3000.00 1000.00      1
 3.21893892E+00 1.23204128E-02-5.44372150E-06 1.22223350E-09-1.10736520E-13    2
 1.05061274E+04 6.57037382E+00 9.42542945E-01 2.13488271E-02-1.88705886E-05    3
 1.00963087E-08-2.30996292E-12 1.09652651E+04 1.75719609E+01                   4

END


REACTIONS     CAL/MOLE     MOLES

N + H = NH                             1.000E+00     0.000        0
  PLOG /                   9.869E-02   2.294E+15    -2.122      -44 /
  PLOG /                   9.869E-01   2.242E+16    -2.119      -41 /
  PLOG /                   9.869E+00   2.463E+17    -2.130        3 /

NNH + NH = N2 + NH2                    5.000E+13     0.000        0

NH2 + NH = NH3 + N                     9.570E+03     2.460      107

NH + NH => N2 + H + H                  2.500E+13     0.000        0

H2NN + NH2 = NNH + NH3                 1.800E+06     1.940    -1152

NH + H = H2 + N                        1.000E+14     0.000        0

N2H2 + H = NNH + H2                    8.500E+04     2.630      230

NH2 + H = NH + H2                      6.920E+13     0.000     3650

N2H2 + NH = NNH + NH2                  2.400E+06     2.000    -1192

N2H4 + H = N2H3 + H2                   7.000E+12     0.000     2500

N2H4 + N = N2H3 + NH                   1.000E+10     1.000     2000

N2H3 + N2H3 => NH3 + NH3 + N2          3.000E+12     0.000        0

NH2 + NH2 = H2NN + H2                  7.170E+04     1.880     8802

NNH + NH2 = N2 + NH3                   5.000E+13     0.000        0

NH2 + NH = N2H2 + H                    1.500E+15    -0.500        0

N2H3 +M = NH2 + NH +M                  5.000E+16     0.000    60000

N2H3 + H = N2H2 + H2                   2.400E+08     1.500        0

N2H3 + N2H3 = N2H4 + N2H2              1.200E+13     0.000        0

NH2 + NH2 = N2H2 + H2                  1.740E+08     1.020    11783

NNH +M = N2 + H +M                     1.000E+13     0.500     3063

N2H3 + NH = N2H2 + NH2                 2.000E+13     0.000        0

NH2 +M = NH + H +M                     1.200E+15     0.000    75950

N2H3 + H = NH + NH3                    1.000E+11     0.000        0

N2H4 = H2NN + H2                       5.300E+39    -8.350    69307
  PLOG /                   1.000E-01   4.000E+44    -9.850    71353 /
  PLOG /                   1.000E+00   5.300E+39    -8.350    69307 /
  PLOG /                   1.000E+01   2.500E+39    -8.190    69664 /

N2H4 + NH2 = N2H3 + NH3                3.900E+12     0.000     1500

NH + NH = NH2 + N                      5.660E-01     3.880      342

N2H2 = H2NN                            2.000E+41    -9.380    68452
  PLOG /                   1.000E-01   9.200E+38    -9.010    67727 /
  PLOG /                   1.000E+00   2.000E+41    -9.380    68452 /
  PLOG /                   1.000E+01   1.300E+45   -10.130    70757 /

H2 + AR => H + H + AR                  5.800E+18    -1.100   104380

NH2 + H2 = NH3 + H                     1.500E+04     2.600     5975

NH2 + NH2 (+M) = N2H4 (+M)             5.600E+14    -0.414       66
  LOW  /                               1.600E+34    -5.490     1987  /
  TROE /   3.100E-01   1.000E-30   1.000E+30   1.000E+30 /

N2H4 + NH = NH2 + N2H3                 1.000E+09     1.500     2000

N2H4 + H = NH2 + NH3                   2.400E+09     0.000     3100

N2H2 + NH2 = NNH + NH3                 8.800E-02     4.050     1610

N2H2 +M = NNH + H +M                   1.800E+40    -8.410    73320
  PLOG /                   1.000E-01   5.600E+36    -7.750    70340 /
  PLOG /                   1.000E+00   1.800E+40    -8.410    73320 /
  PLOG /                   1.000E+01   3.100E+41    -8.420    76102 /

NH + N = N2 + H                        3.000E+13     0.000        0

N2H3 + NH2 = N2H2 + NH3                9.200E+05     1.940    -1152

H2NN + H = N2H2 + H                    7.000E+13     0.000        0

NNH + H = N2 + H2                      1.000E+14     0.000        0

N2H3 +M = N2H2 + H +M                  1.000E+16     0.000    37000

N2H3 + NH2 = H2NN + NH3                3.000E+13     0.000        0

NH3 +M = NH2 + H +M                    2.200E+16     0.000    93470

H2NN = NNH + H                         9.600E+35    -7.570    54841
  PLOG /                   1.000E-01   5.900E+32    -6.990    51791 /
  PLOG /                   1.000E+00   9.600E+35    -7.570    54841 /
  PLOG /                   1.000E+01   5.000E+36    -7.430    57295 /

NH2 + NH2 = NH3 + NH                   5.640E+00     3.530      522

H2NN + H = NNH + H2                    4.800E+08     1.500     -894

NH2 + N => N2 + H + H                  7.000E+13     0.000        0

H2 +M = H + H +M                       4.580E+19    -1.400   104400
  H2/2.500/   AR/0.000/   

N2 +M = N + N +M                       1.890E+18    -0.850   224950



END

