units(length='cm', time='s', quantity='mol', act_energy='cal/mol')

ideal_gas(name='gas',
          elements="C H O N Ar He",
          species="""H                 O                 OH
                     O2                H2                CHO
                     H2O               HO2               H2O2
                     CH3               CH2O              CH4
                     C2H2O2-uO9pAY     C2H3O-UPQcwB      C2H4-S58kzk
                     C2H3O-UPQQF7      C2H5-S58eMK       C2H4O-UPQWKw
                     C3KET-Wv9qJr      C3KALD-2cwWKw     C3ALOX-gDNeMK
                     C3DALD-8bQFbZ     C3ALK-2LTLsA      C3ALD-Wv9uaE
                     C3ALD-Wv96xF      C4DALD-RbBVHz     C4ALK-808sWvE
                     C4ALK-808sWvZ     C4ALK-808adU      C4KALD-q3b6xF
                     C4KALD-RyF6xF     C4DKET-mZN0v8     C4KEOH-RyFn3YA1
                     C4KEOH-RyFBqF     C4AAOH-mZNXbmE    C4AAOH-Jm2BlaZ
                     C4AAOH-Jm2BlaE    C4AAOH-uz1BlaZ    C4AAOH-mZNXbmZ
                     C4CETH-2LKyxlA0   C4KEOH-mZNdwkA0   C4AAOH-mZNXqBA1
                     C4AAOH-uz1BlaE    C4KEOH-mZN96JA1   C4AAOH-RbB4szE
                     C4AAOH-RbB4szZ    C4AAOH-vMtdXFE    C4AAOH-vMtdXFZ
                     C4CETH-RvEsWvAB   C4ADOH-RbBPs7     C4ADOH-RbBj9P
                     C4CETH-RvEsWvAA1  C4AAOH-RyFBlaZ    C4ADOH-RyFFNeA0
                     C4-808nWE         C4-808cUn         C4AAOH-q3bN0EEA1
                     C4AAOH-q3bN0EZA1  C4CETH-SqnyxlA0   C4AAOH-q3bKk6EA1
                     C4AAOH-q3bKk6ZA1  C4KEOH-q3bn3YA1   C4AAOH-q3bBlaE
                     C4ADOH-q3bFNeA1   C4AAOH-nN4BlaE    C4AAOH-nN4BlaZ
                     C4ADOH-q3bYSe     C4KEOH-q3bBqF     C4AAOH-q3bsEZ
                     C4ADOH-RyFKk6A0   C4AAOH-ZnVBlaE    C4AAOH-ZnVBlaZ
                     C4AAOH-RyFBlaE    C4CETH-FCWSI1     C4AAOH-q3bBlaZ
                     C4KEOH-q3bHhi     C4KEOH-RbBBqF     C4AKOX-RbByrZ
                     C4AKOX-RyF8pfA1   C4KKOX-mZN0BQA1   C4KKOX-q3b40k
                     C4AKOX-q3b8pfA0   C4KKOX-RyF40k     C4ANHY-ZUsgvGZ
                     C4ANHY-ZUsjatZ    C4ANHY-ZUsjatE    C4ANHY-OAz3cEZ
                     C4ANHY-ZUsgvGE    C4ANHY-OAz3cEE    C4ANHY-ZUsBOc
                     C4ANHY-OAztob     C4ANHY-OAzeCUA0   C4-808zqE
                     C4QOOH-ZUsHCf     C4CEHY-0vRjatAA0  C4QOOH-OAz243A1
                     C4CEHY-0vRjatAB0  C4CEHY-yW2WwKA1   C4AHP-cKXdD3A1
                     C4CEHY-2m1jatAA0  C4AHP-9Jv1V8      C4RO2-ZUssfD
                     C4KHP-LKXOOsA1    C4RO2-OAzhmnA0    C4KHP-aiQAr5
                     C4KHP-rtmAr5      C4AHP-j42dD3A1    C4CEHY-2m1jatAB0
                     C4QOOH-OAzHMdA1   C4CEHY-gCGWwKA0   C4QOOH-ZUsU8t
                     C4CEHY-Y2VjatAB0  C4CEHY-Y2VjatAA1  C4QOOH-OAzOKIA0
                     C4CEHY-hhcWwKA0   C4QOOH-ZUsA4w     C4OOHY-7bgOKIAB0
                     C4OOHY-7bgOKIAA0  C4DHY-7bgbsAAB1   C4DHY-7bgbsAAA0
                     C4DHY-LgKhME      C4OOHY-TpEHMdA0   C4OOHY-LgKA4w
                     C4OOHY-DYCHMdA0   C4OOHY-DYCDqUA0   C4DHY-TpEGZJA1
                     C4DHY-DYCKGMA1    C4OOHY-TpEDqUA1   C4DHY-DYCGZJA0
                     C4DHY-TpEKGMA1    instabspc         instabspcb
                     AR                OHV               HE
                     N2                C                 CO
                     CO2               CH                CHV
                     HOCO              O2CHO             OCHO
                     CH2               CH2(S)            HCOH
                     HO2CHO            HOCHO             CH2O2H
                     CH2OH             CH3O              CH3O2
                     HOCH2O            HOCH2O2           OCH2O2H
                     CH3O2H            CH3OH             HOCH2O2H
                     C2                C2O               C2H
                     HCCO              C2H2              CH2CO
                     CHCHO             H2CC              HCCOH
                     C2H2OH            C2H3              C2H3O1-2
                     C2H3OO            CH2OCHO           CH3CO2
                     CH3CO3            CH3OCO            HO2CH2CO
                     HOCH2CO           HOCH2OCO          HOCHCHO
                     O2CH2CHO          OCH2CHO           OCH2OCHO
                     SC2H2OH           C2H3OH            C2H3OOH
                     C2H4O1-2          CH3CO3H           CH3COOH
                     CH3OCHO           HO2CH2CHO         HO2CH2OCHO
                     HOCH2CHO          C2H4O2H           C2H5O
                     C2H5O2            CH2OCH2O2H        CH3OCH2
                     CH3OCH2O          CH3OCH2O2         O2C2H4OH
                     O2CH2OCH2O2H      PC2H4OH           SC2H4OH
                     C2H5O2H           C2H5OH            C2H6
                     CH3OCH2O2H        CH3OCH2OH         CH3OCH3
                     C2HCHO            C3H2              C3H2(S)
                     C3H2C             CH2CCO            H2CCC(S)
                     C2H3CO            C3H3              C3H3O
                     CH2CHOCO          CH2COHCO          CJVCCVO
                     C2H3CHO           C3H3O2H           C3H4-A
                     C3H4O             C3H4O1-2          C3H4-P
                     CC3H4             CH2CHOCHO         CH2COCH2
                     CH2COHCHO         CH3CCHO           CH3CHCO
                     CH3COCH           CH3COHCO          C2H4OCHO
                     C2H5CO3           C3H5-A            C3H5O
                     C3H5O31           C3H5O32           C3H5-S
                     C3H5-T            CCYCCO-T1         CH2CCH2OH
                     CH2CHCHOH         CH2CHOCH2         CH2OCH2CHO
                     CH3C(OH)CH        CH3CHCHO          CH3COCH2O
                     CH3COCH2O2        CH3COCHOH         HOCH2COCH2
                     OCHCH2CH2O        PC3H4OH-1         PC3H4OH-2
                     SC3H4OH           SC3H5OO           TC3H5OO
                     AC3H5OOH          C2H3COHOOH        C2H5CO3H
                     C2H5COOH          C3H5O1-2OOH-3     C3H5OH
                     C3H5-SOOH         C3H6O1-2          C3H6O1-3
                     C3KET12           C3KET13           C3KET21
                     CC3H6             CCY(COC)OH        CH2COHCH2OOH
                     CH2CQCOHQ         CH3COCH3          CHOCOHCH2OOH
                     CHOCOHCH3         CO(CH2OOH)2       COHOOHCY(COC)
                     CY(CCOC)OH        CY(COC)COH        IC3H5OH
                     IC3H5Q            OHCOCOOHCH3       OHCY(COCC)OOH
                     SC3H5OH           C3H51-2,3OOH      C3H6OH1-1
                     C3H6OH1-2         C3H6OH1-3         C3H6OH2-1
                     C3H6OOH1-2        C3H6OOH1-2O2      C3H6OOH1-3
                     C3H6OOH1-3O2      C3H6OOH2-1        C3H6OOH2-1O2
                     IC3H7             IC3H7O            IC3H7O2
                     IQC3H5OHPJ        IQC3H5OHPJO2      IQC3H5OHQ-SJ
                     IQC3H5OTQ-I       IQC3H6OT          IQJC3H6OH
                     NC3H7             NC3H7O            NC3H7O2
                     QC3H5OHP          TC3H6OH           TQC3H5OHI
                     TQC3H5OHIO2       TQC3H5OHIQ-I      TQC3H5OHIQ-P
                     TQC3H5OHTO2       TQC3H6OI          TQJC3H6OH
                     C3H8              IC3H7O2H          IC3H7OH
                     NC3H7O2H          NC3H7OH           C4H2
                     H2C4O             C4H3-I            C4H3-N
                     IC4YAA-R          OVCCVCCJVO        C3H3CHO
                     C4H4              C4H4O             IC4YAA
                     OVCCVCCVO         C2H3COOCH2        C3H3CH2O
                     C4H5-1            C4H512-OO4        C4H513-OO2
                     C4H5-2            C4H5-3            C4H5-4
                     C4H5-I            C4H5-N            CH2CHCHCHO
                     CH2CYCOO-CH2      CYCCCOO-3J        CYCOOC-CH2
                     IC3H4CHO-A        IC3H5CO           NC4H5O2
                     OVCC(VC)COJ       SC3H5CO           AC3H5CHO
                     C2H3CHOCH2        C2H3CHOHCHO       C2H3COCH2OH
                     C2H3COCH2Q        C2H3COCH3         C2H5CHCO
                     C3H2OHCH2Q        C3H3CH2OOH        C3H3CHO-OOH23
                     C3H3OHCHO1-2OOH   C4H412-OOH34      C4H4O-OOH24
                     C4H51,3OH2        C4H5OH-13         C4H6
                     C4H6-1            C4H612            C4H6-2
                     C4H6O23           C4H6O25           CDY(COCC)OH
                     CHOC3H4OH         CVCYCCOC          IC3H5CHO
                     IC3H6CO           OVCC(VC)COOH      SC3H5CHO
                     AC3H5OCH2         C2CYCOOC-I1       C2H3CHOHCH2
                     C2H3CHOHCH2O      C2H3CHOHCH2OO     C2H5COCH2
                     C3H4CH2OH-1O      C3H4CH2OH-3O      C3H6CHO-3
                     C3H6CHO-2         C3H6CHO-1         C4H5OH1-4OOH
                     C4H5OH1-4OOH-2OO  C4H5OJ1-2,4OOH    C4H61-2OOH34
                     C4H61-3OOH4       C4H61-OOH34-OO2   C4H61-OOH3-OO4
                     C4H63,1-1OH       C4H63,1-2OH       C4H63,1-3OH
                     C4H64,2-1OH       C4H6O1-3OOH4      C4H71-1
                     C4H71-1O2         C4H71-2           C4H71-2O2
                     C4H71-3           C4H71-4           C4H71-4O2
                     C4H71-O           C4H72-2           C4H72-2O2
                     C4H7O12-4         C4H7O13-4         C4H7O1-4
                     C4H7O2-1          C4H7O23-1         CC4H7O-IJ
                     CCYC2OCO          CCYCCOOC-I2       CCYCCOOC-T1
                     CH2CH2COCH3       CH2CHOOHCOCH3     CH3CHCOCH3
                     CH3CHOOCOCH3      CHOIC3H6O         CVC(COOJ)COOH
                     IC3H5OOCH2        IC3H6CHO          IC3H7CO
                     IC4H6OH           IC4H6OOH-I        IC4H7
                     IC4H7-I1          IC4H7-I1OO        IC4H7O
                     IC4H7O2           IC4QA-AOJ         NC3H7CO
                     SC3H5OCH2-1       TC3H6CHO          TC3H6O2HCO
                     TC3H6OCHO         AC4H7OOH          C2CY(COC)OH
                     C3H4CH2OH-1OOH    C4H6OHOOH1-2-3    C4H6OHOOH1-3-4
                     C4H6OHOOH1-4-3    C4H6OHOOH2-2-1    C4H71-1OH
                     C4H71-2OH         C4H71-3OH         C4H71-4OH
                     C4H72-1OH         C4H72-2OH         CC4H8O
                     CCY(CCO)COH       CCY(CCOC)OH       CCY(COCC)OH
                     CHOC(CH3)OHCH2Q   COHQCYC(COC)      CY(CCCO)COH
                     HOCOCQ(CH3)2      IC3H5COHQ         IC3H6OHCHO
                     IC3H7CHO          IC4H6Q2-II        IC4H7OH
                     IC4H7OOH          IC4H8             IC4H8O
                     IC4KETII          IC4KETIT          NC4KET12OH
                     NC4KET13OH-2      NC4KET21OH        NC4KET23OH
                     NC4KET24OH-1      NC4KET24OH-3      QCYC(CCOC)OH
                     SC4H7OH-I         SC4H7OH-IP        C4H7O2-1,3OOH
                     IC4H8O2H-I        IC4H8O2H-T        IC4H8OH
                     IC4H8OH-IT        IC4H8OH-TI        IC4H8OOH-IO2
                     IC4H8OOH-TO2      IC4H9             IC4H9O
                     IC4H9O2           IIC4H7Q2-I        IIC4H7Q2-T
                     IQC4H7OHT         IQC4H7OHTO2       IQC4H7OHTQ-P
                     IQC4H8OT          IQC4H8OTQ-I       IQJC4H8OH
                     PC4H8OH-1         PC4H8OH-2         PC4H8OH-2O2
                     PC4H8OH-3         PC4H8OH-4         PC4H9O
                     PQC4H7OHS-3       PQC4H7OHS-3O2     PQC4H8OS
                     QC4H7OHP          SC4H8OH-1         SC4H8OH-1O2
                     SC4H8OH-2         SC4H8OH-3         SC4H8OH-3O2
                     SC4H9O            SQC4H7OHP-4       SQC4H7OHP-4O2
                     SQC4H7OHS-4       SQC4H7OHS-4O2     SQC4H8OP
                     SQC4H8OS          TC4H8O2H-I        TC4H8OOH-IO2
                     TC4H9             TC4H9O            TC4H9O2
                     TIC4H7Q2-I        TQC4H7OHI         TQC4H7OHIO2
                     TQC4H7OHIQ-I      TQC4H7OHIQ-P      TQC4H7OHTO2
                     TQC4H8OI          TQJC4H8OH         IC4H10
                     IC4H9O2H          PC4H9O2H          SC4H9O2H
                     TC4H9O2H          IC5H12            NC5H12
                     NEOC5H12          BUTA123TRIENE     C(OH)CY(COC)
                     C2H4COCHOQ3       C2H5CO2           C3H4OH1KT2-3
                     C3H4OHOOH1-3-2    C3H5CHOQ1-3       C3H5CHOQ1-3O2
                     C3H5CHOQ2-1       C3H5CHOQ2-1O2     C3H5CHOQ3-1
                     C3H5CHOQ3-1O2     C3H5CHOQ3-2       C3H6CHO-1O2
                     C3H6CHO-2O2       C3H6CHO-3O2       C3H6COQ1
                     C3H6COQ2          C3H6COQ3          C3H6O3
                     C4H61KET43        C4H61KET43O       C4H61OOH3-4
                     C4H61OOH4-3O2     C4H6OH1KET2-3     C4H6OH2KET1-4
                     C4H71-3O2         C4H72-1O2         C4H7OH1O1-2
                     C4H7OH1O2-3       C4H7OH2O1-2       C4H7OH2O1-4
                     cCH2COOCH2#       cCH2OCH#CO3H      CCY(COC)OHC
                     CCYCCJO           CH2(OH)OCH2       CH2CH(OOH)CO3H
                     CH2CO2            CH2COHCH2O        CH2COOH
                     CH3#CHCOO#        CH3CCO            CH3CH(OO)CHO
                     CH3CH(OO)CO3H     CH3CH(OOH)CO3     CH3COCHCHOQ1
                     CH3COCOHCH2       CH3COH            CH3CYC2H2OCHO
                     CH3OCHCH2         CHOCH2CHCHOQ1     CJCYCCO
                     CYC2H3OCH2CHO     CYC2H3OCHO        CYC3H5OCHO
                     ET12IC4-1OOH      HCOCH(OOH)CHO     HO2CH2cCHOCO#
                     HO2CH2CH(OO)CHO   HO2CH2CH(OOH)CO   HO2CH2CH2CO3
                     IC4H7O-1          IQC3H5OHPJC       KCH3COCO3H
                     KCHOCH2CO3H       KHO2CH2COCHO      MCP
                     O2CH2CH(OOH)CHO   O2CH2CH2CHO       O2CH2CH2CO3H
                     OVCCCJVO          PQC4H7OHS-2       PQC4H7OHS-4
                     PQC4H7OHS-4O2     QC3H5OHPO2        QCH2CH(OOH)CHO
                     QCH2CH2CO3H       QCH3CH(OOH)CO     QCH3CHCO3H
                     QHO2CH2CH2CO      QHO2CH2CHCHO      SC4H7O-I
                     SC4H7OOH-I        SQC4H7OHP-1       SQC4H7OHP-3
                     SQC4H7OHP-3O2     SQC4H7OHS-3       CVOCVCCOOH
                     OVCCVCCOJ""",
          reactions='all',
          initial_state=state(temperature=300.0, pressure=OneAtm))

#-------------------------------------------------------------------------------
# Species data
#-------------------------------------------------------------------------------

species(name='H',
        atoms='H:1',
        thermo=(NASA([200.00, 1000.00],
                     [ 2.49929216E+00,  1.08315920E-06,  3.56328243E-09,
                      -9.26844763E-12,  5.08428347E-15,  2.54800099E+04,
                      -4.57956552E-01]),
                NASA([1000.00, 3000.00],
                     [ 2.49856327E+00,  2.55065221E-06, -1.88408471E-09,
                       5.93128518E-13, -6.85305400E-17,  2.54803860E+04,
                      -4.53664370E-01])))

species(name='O',
        atoms='O:1',
        thermo=(NASA([200.00, 1000.00],
                     [ 3.16830791E+00, -3.28278018E-03,  6.65718476E-06,
                      -6.14778662E-09,  2.12143420E-12,  2.91283170E+04,
                       2.03645157E+00]),
                NASA([1000.00, 3000.00],
                     [ 2.59483570E+00, -1.47120796E-04,  9.20802639E-08,
                      -2.62537188E-11,  2.81861859E-15,  2.92156675E+04,
                       4.63389303E+00])))

species(name='OH',
        atoms='H:1 O:1',
        thermo=(NASA([200.00, 1000.00],
                     [ 4.11847910E+00, -3.21372937E-03,  6.48823467E-06,
                      -5.77540955E-09,  2.05188530E-12,  3.40997656E+03,
                      -6.91808746E-01]),
                NASA([1000.00, 3000.00],
                     [ 3.23174189E+00,  2.18045124E-04,  3.81882610E-07,
                      -1.87167012E-10,  2.49575416E-14,  3.62460213E+03,
                       3.69894089E+00])))

species(name='O2',
        atoms='O:2',
        thermo=(NASA([200.00, 1000.00],
                     [ 3.78045627E+00, -3.11572602E-03,  1.06407960E-05,
                      -1.09016398E-08,  3.78707230E-12, -1.12665779E+03,
                       3.66919024E+00]),
                NASA([1000.00, 3000.00],
                     [ 3.13826340E+00,  1.87006882E-03, -1.07672462E-06,
                       2.89046212E-10, -2.96950151E-14, -1.10584015E+03,
                       6.20223010E+00])))

species(name='H2',
        atoms='H:2',
        thermo=(NASA([200.00, 1000.00],
                     [ 3.48592437E+00,  1.32210336E-04, -4.20554770E-07,
                       4.64766452E-10, -7.73540007E-14, -1.01735446E+03,
                      -4.22898441E+00]),
                NASA([1000.00, 3000.00],
                     [ 3.56289739E+00, -5.75967143E-04,  8.76435142E-07,
                      -3.15641643E-10,  3.72686451E-14, -1.00039121E+03,
                      -4.46953228E+00])))

species(name='CHO',
        atoms='C:1 H:1 O:1',
        thermo=(NASA([200.00, 1000.00],
                     [ 4.23235967E+00, -3.36437514E-03,  1.41202090E-05,
                      -1.38365566E-08,  4.59583479E-12,  3.75854804E+03,
                       3.34144653E+00]),
                NASA([1000.00, 3000.00],
                     [ 2.57619856E+00,  5.33564439E-03, -2.79647746E-06,
                       7.00390416E-10, -6.82842244E-14,  4.00218190E+03,
                       1.08605066E+01])))

species(name='H2O',
        atoms='H:2 O:1',
        thermo=(NASA([200.00, 1000.00],
                     [ 4.20788848E+00, -2.18895672E-03,  6.85087466E-06,
                      -5.77533755E-09,  1.84150964E-12, -3.02908868E+04,
                      -8.97414637E-01]),
                NASA([1000.00, 3000.00],
                     [ 3.00381375E+00,  2.27385380E-03, -2.63123124E-07,
                      -1.00204847E-10,  2.16389387E-14, -3.00016938E+04,
                       5.07748411E+00])))

species(name='HO2',
        atoms='H:1 O:2',
        thermo=(NASA([200.00, 1000.00],
                     [ 4.36280718E+00, -5.22323578E-03,  2.19688131E-05,
                      -2.47908127E-08,  9.38166240E-12,  1.67744997E+02,
                       3.44042638E+00]),
                NASA([1000.00, 3000.00],
                     [ 3.43178014E+00,  3.51831256E-03, -1.56299111E-06,
                       3.41983587E-10, -2.98509679E-14,  1.71036210E+02,
                       6.87136667E+00])))

species(name='H2O2',
        atoms='H:2 O:2',
        thermo=(NASA([200.00, 1000.00],
                     [ 4.42872225E+00, -2.26450461E-03,  2.07766057E-05,
                      -2.55500758E-08,  1.00334039E-11, -1.75960580E+04,
                       2.86895121E+00]),
                NASA([1000.00, 3000.00],
                     [ 3.83175798E+00,  5.48369571E-03, -2.33632912E-06,
                       4.85008146E-10, -3.99813145E-14, -1.76629762E+04,
                       4.64088639E+00])))

species(name='CH3',
        atoms='C:1 H:3',
        thermo=(NASA([200.00, 1000.00],
                     [ 3.71264503E+00,  2.90838243E-03,  2.51020053E-06,
                      -3.05659728E-09,  1.02953230E-12,  1.63732374E+04,
                       1.29653487E+00]),
                NASA([1000.00, 3000.00],
                     [ 2.36963055E+00,  7.12485746E-03, -2.92571743E-06,
                       5.80704170E-10, -4.53117253E-14,  1.67256304E+04,
                       8.13151137E+00])))

species(name='CH2O',
        atoms='C:1 H:2 O:1',
        thermo=(NASA([200.00, 1000.00],
                     [ 4.80326286E+00, -9.98645707E-03,  3.74607880E-05,
                      -3.80484696E-08,  1.32176181E-11, -1.44304503E+04,
                       5.34666783E-01]),
                NASA([1000.00, 3000.00],
                     [ 1.42292781E+00,  9.99497154E-03, -5.10398592E-06,
                       1.25312334E-09, -1.20294518E-13, -1.40103874E+04,
                       1.54200996E+01])))

species(name='CH4',
        atoms='C:1 H:4',
        thermo=(NASA([200.00, 1000.00],
                     [ 5.15820686E+00, -1.37546681E-02,  4.93470384E-05,
                      -4.90525039E-08,  1.69284320E-11, -1.02358842E+04,
                      -4.71250067E+00]),
                NASA([1000.00, 3000.00],
                     [-4.09591298E-02,  1.37966610E-02, -6.47380088E-06,
                       1.47795587E-09, -1.33351554E-13, -9.42569453E+03,
                       1.89831155E+01])))

species(name='C2H2O2-uO9pAY',
        atoms='C:2 H:2 O:2',
        thermo=(NASA([200.00, 1000.00],
                     [ 4.72174906E+00, -1.95198431E-04,  4.57308082E-05,
                      -6.20235807E-08,  2.48815826E-11, -2.73792210E+04,
                       4.35179800E+00]),
                NASA([1000.00, 3000.00],
                     [ 6.46186975E+00,  1.15381091E-02, -6.39556573E-06,
                       1.68167446E-09, -1.70726831E-13, -2.85263894E+04,
                      -8.31065818E+00])))

species(name='C2H3O-UPQcwB',
        atoms='C:2 H:3 O:1',
        thermo=(NASA([200.00, 1000.00],
                     [ 4.52729118E+00, -2.42790952E-03,  3.82085413E-05,
                      -4.66654855E-08,  1.79414251E-11, -2.84035667E+03,
                       5.74545436E+00]),
                NASA([1000.00, 3000.00],
                     [ 2.75391790E+00,  1.45292888E-02, -7.30350749E-06,
                       1.77296599E-09, -1.68802722E-13, -2.86246696E+03,
                       1.21757155E+01])))

species(name='C2H4-S58kzk',
        atoms='C:2 H:4',
        thermo=(NASA([200.00, 1000.00],
                     [ 4.05671556E+00, -8.39489191E-03,  5.87364707E-05,
                      -7.05125688E-08,  2.73982229E-11,  4.97470781E+03,
                       3.67842049E+00]),
                NASA([1000.00, 3000.00],
                     [ 1.59192903E+00,  1.56024182E-02, -7.50279417E-06,
                       1.75424085E-09, -1.61845461E-13,  4.96590549E+03,
                       1.26279655E+01])))

species(name='C2H3O-UPQQF7',
        atoms='C:2 H:3 O:1',
        thermo=(NASA([200.00, 1000.00],
                     [ 2.63511622E+00,  1.04522759E-02,  1.41579087E-05,
                      -2.67581994E-08,  1.17314447E-11,  5.39363611E+02,
                       1.26237390E+01]),
                NASA([1000.00, 3000.00],
                     [ 3.71655164E+00,  1.40004707E-02, -7.05100119E-06,
                       1.71644542E-09, -1.63920495E-13,  1.38792434E+01,
                       5.69200095E+00])))

species(name='C2H5-S58eMK',
        atoms='C:2 H:5',
        thermo=(NASA([200.00, 1000.00],
                     [ 4.32106241E+00, -3.52102476E-03,  4.75882118E-05,
                      -5.76166752E-08,  2.22058427E-11,  1.29833525E+04,
                       4.56216274E+00]),
                NASA([1000.00, 3000.00],
                     [ 1.61069434E+00,  1.82910367E-02, -8.78675147E-06,
                       2.05139001E-09, -1.88952597E-13,  1.31412870E+04,
                       1.53694861E+01])))

species(name='C2H4O-UPQWKw',
        atoms='C:2 H:4 O:1',
        thermo=(NASA([200.00, 1000.00],
                     [ 5.09124347E+00, -7.25382382E-03,  5.74826392E-05,
                      -6.71803388E-08,  2.53304122E-11, -2.15080052E+04,
                       2.88925460E+00]),
                NASA([1000.00, 3000.00],
                     [ 1.96968421E+00,  1.89764914E-02, -9.59046395E-06,
                       2.33768971E-09, -2.23269079E-13, -2.14126733E+04,
                       1.49742026E+01])))

species(name='C3KET-Wv9qJr',
        atoms='C:3 H:5 O:1',
        thermo=(NASA([200.00, 1000.00],
                     [ 4.27519284E+00,  6.89229610E-03,  4.13470516E-05,
                      -5.83529705E-08,  2.36242002E-11, -5.50956902E+03,
                       9.44998764E+00]),
                NASA([1000.00, 3000.00],
                     [ 3.73896184E+00,  2.31342690E-02, -1.16508644E-05,
                       2.83368267E-09, -2.70278870E-13, -5.94611995E+03,
                       8.98919395E+00])))

species(name='C3KALD-2cwWKw',
        atoms='C:3 H:4 O:2',
        thermo=(NASA([200.00, 1000.00],
                     [ 5.02596228E+00,  5.69103403E-03,  5.48597532E-05,
                      -7.87678906E-08,  3.22697054E-11, -3.48323224E+04,
                       5.79959960E+00]),
                NASA([1000.00, 3000.00],
                     [ 7.21622505E+00,  1.99110871E-02, -1.04084247E-05,
                       2.61629419E-09, -2.56617321E-13, -3.62173341E+04,
                      -9.91264463E+00])))

species(name='C3ALOX-gDNeMK',
        atoms='C:3 H:5 O:1',
        thermo=(NASA([200.00, 1000.00],
                     [ 2.43703266E+00,  2.02338396E-02,  1.30617646E-05,
                      -3.21216346E-08,  1.46359215E-11, -5.53971076E+03,
                       1.55833710E+01]),
                NASA([1000.00, 3000.00],
                     [ 4.39664321E+00,  2.27320018E-02, -1.13745138E-05,
                       2.75483658E-09, -2.62044046E-13, -6.34250097E+03,
                       3.86583883E+00])))

species(name='C3DALD-8bQFbZ',
        atoms='C:3 H:4 O:2',
        thermo=(NASA([200.00, 1000.00],
                     [ 3.18570796E+00,  2.09153551E-02,  1.23679443E-05,
                      -3.24026941E-08,  1.48401188E-11, -3.23901228E+04,
                       1.44163086E+01]),
                NASA([1000.00, 3000.00],
                     [ 5.83481425E+00,  2.21079570E-02, -1.17061384E-05,
                       2.96108639E-09, -2.91287106E-13, -3.34254997E+04,
                      -1.04370527E+00])))

species(name='C3ALK-2LTLsA',
        atoms='C:3 H:6',
        thermo=(NASA([200.00, 1000.00],
                     [ 4.05541419E+00,  1.21343199E-03,  5.54568358E-05,
                      -7.14309197E-08,  2.80592336E-11,  6.92897337E+02,
                       6.69393059E+00]),
                NASA([1000.00, 3000.00],
                     [ 1.94964996E+00,  2.50899626E-02, -1.23595237E-05,
                       2.95113846E-09, -2.77231361E-13,  5.37627907E+02,
                       1.35617806E+01])))

species(name='C3ALD-Wv9uaE',
        atoms='C:3 H:5 O:1',
        thermo=(NASA([200.00, 1000.00],
                     [ 6.09432626E+00,  1.74186271E-04,  5.26988204E-05,
                      -6.76267954E-08,  2.65505344E-11,  7.64058184E+02,
                       1.63133777E+00]),
                NASA([1000.00, 3000.00],
                     [ 4.33977943E+00,  2.22240765E-02, -1.10997697E-05,
                       2.68131092E-09, -2.54325180E-13,  5.43801962E+02,
                       6.86590221E+00])))

species(name='C3ALD-Wv96xF',
        atoms='C:3 H:6 O:1',
        thermo=(NASA([200.00, 1000.00],
                     [ 4.97872797E+00,  9.18606578E-04,  6.36219276E-05,
                      -8.20695099E-08,  3.22214542E-11, -2.40088882E+04,
                       5.97742799E+00]),
                NASA([1000.00, 3000.00],
                     [ 2.96242105E+00,  2.75618919E-02, -1.39221612E-05,
                       3.39316818E-09, -3.24113482E-13, -2.43227503E+04,
                       1.16831744E+01])))

species(name='C4DALD-RbBVHz',
        atoms='C:4 H:6 O:2',
        thermo=(NASA([200.00, 1000.00],
                     [ 6.74166259E+00,  1.71225306E-02,  2.12433779E-05,
                      -3.23528483E-08,  1.18480823E-11, -3.66224227E+04,
                       6.77265197E-01]),
                NASA([1000.00, 3000.00],
                     [ 5.52292833E+00,  3.18881689E-02, -1.65191670E-05,
                       4.11012993E-09, -3.99255066E-13, -3.68652697E+04,
                       4.11912563E+00])))

species(name='C4ALK-808sWvE',
        atoms='C:4 H:8',
        thermo=(NASA([200.00, 1000.00],
                     [ 5.32655188E+00,  4.75379323E-03,  6.43260741E-05,
                      -8.34496084E-08,  3.25164767E-11, -3.60537182E+03,
                       1.56617899E+00]),
                NASA([1000.00, 3000.00],
                     [ 2.51266525E+00,  3.42955496E-02, -1.70483416E-05,
                       4.10098827E-09, -3.87574057E-13, -3.74439717E+03,
                       1.11917512E+01])))

species(name='C4ALK-808sWvZ',
        atoms='C:4 H:8',
        thermo=(NASA([200.00, 1000.00],
                     [ 6.45234836E+00, -1.05652572E-02,  1.06293245E-04,
                      -1.28215021E-07,  4.92828471E-11, -2.98954560E+03,
                      -1.27028444E+00]),
                NASA([1000.00, 3000.00],
                     [ 1.67586815E+00,  3.53389894E-02, -1.76086166E-05,
                       4.24352896E-09, -4.01607424E-13, -3.04231468E+03,
                       1.60394198E+01])))

species(name='C4ALK-808adU',
        atoms='C:4 H:8',
        thermo=(NASA([200.00, 1000.00],
                     [ 4.90189669E+00,  3.75525453E-03,  7.17173091E-05,
                      -9.41019444E-08,  3.71684462E-11, -2.12283794E+03,
                       5.88718240E+00]),
                NASA([1000.00, 3000.00],
                     [ 2.54109223E+00,  3.41548757E-02, -1.69384401E-05,
                       4.06729767E-09, -3.83863359E-13, -2.44177626E+03,
                       1.27882920E+01])))

species(name='C4KALD-q3b6xF',
        atoms='C:4 H:6 O:2',
        thermo=(NASA([200.00, 1000.00],
                     [ 4.52654414E+00,  2.87003873E-02,  9.81142434E-06,
                      -3.45378084E-08,  1.64500337E-11, -3.95300892E+04,
                       8.44701221E+00]),
                NASA([1000.00, 3000.00],
                     [ 7.62041902E+00,  2.86607372E-02, -1.45541122E-05,