units(length='cm', time='s', quantity='mol', act_energy='cal/mol')

ideal_gas(name='gas',
          elements="N H O Ar He",
          species="""H      H2     O      O2     OH     H2O    N2     HO2
                     H2O2   AR     HE     NO     N2O    NO2    HNO    HNO2
                     HONO   HONO2  tHNNH  cHNNH  H2NN   NH2OH  HNOH   NH3
                     N2H4   N      NO3    NH     NNH    NH2    H2NO   N2H3""",
          reactions='all',
          transport='Mix',
          initial_state=state(temperature=300.0, pressure=OneAtm))

#-------------------------------------------------------------------------------
# Species data
#-------------------------------------------------------------------------------

species(name='H',
        atoms='H:1',
        thermo=(NASA([200.00, 1000.00],
                     [ 2.49975925E+00,  6.73824499E-07,  1.11807261E-09,
                      -3.70192126E-12,  2.14233822E-15,  2.54737665E+04,
                      -4.45574009E-01]),
                NASA([1000.00, 6000.00],
                     [ 2.49985211E+00,  2.34582548E-07, -1.16171641E-10,
                       2.25708298E-14, -1.52992005E-18,  2.54738024E+04,
                      -4.45864645E-01])),
        transport=gas_transport(geom='atom',
                                diam=2.05,
                                well_depth=145.0),
        note='ATcT3E')

species(name='H2',
        atoms='H:2',
        thermo=(NASA([200.00, 1000.00],
                     [ 2.37694204E+00,  7.73916922E-03, -1.88735073E-05,
                       1.95517114E-08, -7.17095663E-12, -9.21173081E+02,
                       5.47184736E-01]),
                NASA([1000.00, 6000.00],
                     [ 2.90207649E+00,  8.68992581E-04, -1.65864430E-07,
                       1.90851899E-11, -9.31121789E-16, -7.97948726E+02,
                      -8.45591320E-01])),
        transport=gas_transport(geom='linear',
                                diam=2.92,
                                well_depth=38.0,
                                polar=0.79,
                                rot_relax=280.0),
        note='ATcT3E')

species(name='O',
        atoms='O:1',
        thermo=(NASA([200.00, 1000.00],
                     [ 3.15906526E+00, -3.21509999E-03,  6.49255543E-06,
                      -5.98755115E-09,  2.06876117E-12,  2.91298453E+04,
                       2.09078344E+00]),
                NASA([1000.00, 6000.00],
                     [ 2.55160087E+00, -3.83085457E-05,  8.43197478E-10,
                       4.01267136E-12, -4.17476574E-16,  2.92287628E+04,
                       4.87617014E+00])),
        transport=gas_transport(geom='atom',
                                diam=2.75,
                                well_depth=80.0),
        note='ATcT3E')

species(name='O2',
        atoms='O:2',
        thermo=(NASA([200.00, 1000.00],
                     [ 3.78498258E+00, -3.02002233E-03,  9.92029171E-06,
                      -9.77840434E-09,  3.28877702E-12, -1.06413589E+03,
                       3.64780709E+00]),
                NASA([1000.00, 6000.00],
                     [ 3.65980488E+00,  6.59877372E-04, -1.44158172E-07,
                       2.14656037E-11, -1.36503784E-15, -1.21603048E+03,
                       3.42074148E+00])),
        transport=gas_transport(geom='linear',
                                diam=3.458,
                                well_depth=107.4,
                                polar=1.6,
                                rot_relax=3.8),
        note='ATcT3E')

species(name='OH',
        atoms='H:1 O:1',
        thermo=(NASA([200.00, 1000.00],
                     [ 3.97585165E+00, -2.28555291E-03,  4.33442882E-06,
                      -3.59926640E-09,  1.26706930E-12,  3.39341137E+03,
                      -3.55397262E-02]),
                NASA([1000.00, 6000.00],
                     [ 2.84581721E+00,  1.09723818E-03, -2.89121101E-07,
                       4.09099910E-11, -2.31382258E-15,  3.71706610E+03,
                       5.80339915E+00])),
        transport=gas_transport(geom='linear',
                                diam=2.75,
                                well_depth=80.0),
        note='ATcT3E')

species(name='H2O',
        atoms='H:2 O:1',
        thermo=(NASA([200.00, 1000.00],
                     [ 4.20147551E+00, -2.05583546E-03,  6.56547207E-06,
                      -5.52906960E-09,  1.78282605E-12, -3.02950066E+04,
                      -8.60610906E-01]),
                NASA([1000.00, 6000.00],
                     [ 2.73117512E+00,  2.95136995E-03, -8.35359785E-07,
                       1.26088593E-10, -8.40531676E-15, -2.99169082E+04,
                       6.55183000E+00])),
        transport=gas_transport(geom='nonlinear',
                                diam=2.605,
                                well_depth=572.4,
                                dipole=1.844,
                                rot_relax=4.0),
        note='ATcT3E')

species(name='N2',
        atoms='N:2',
        thermo=(NASA([200.00, 1000.00],
                     [ 3.53603521E+00, -1.58270944E-04, -4.26984251E-07,
                       2.37542590E-09, -1.39708206E-12, -1.04749645E+03,
                       2.94603724E+00]),
                NASA([1000.00, 6000.00],
                     [ 2.93802970E+00,  1.41838030E-03, -5.03281045E-07,
                       8.07555464E-11, -4.76064275E-15, -9.17180990E+02,
                       5.95521985E+00])),
        transport=gas_transport(geom='linear',
                                diam=3.621,
                                well_depth=97.53,
                                polar=1.76,
                                rot_relax=4.0),
        note='ATcT3E')

species(name='HO2',
        atoms='H:1 O:2',
        thermo=(NASA([200.00, 1000.00],
                     [ 4.26251250E+00, -4.45642032E-03,  2.05164934E-05,
                      -2.35794011E-08,  9.05614257E-12,  2.62442356E+02,
                       3.88223684E+00]),
                NASA([1000.00, 6000.00],
                     [ 4.10564010E+00,  2.04046836E-03, -3.65877562E-07,
                       1.85973044E-11,  4.98818315E-16,  4.32898769E+01,
                       3.30808126E+00])),
        transport=gas_transport(geom='nonlinear',
                                diam=3.458,
                                well_depth=107.4,
                                rot_relax=1.0),
        note='ATcT3E')

species(name='H2O2',
        atoms='H:2 O:2',
        thermo=(NASA([200.00, 1000.00],
                     [ 4.23854160E+00, -2.49610911E-04,  1.59857901E-05,
                      -2.06919945E-08,  8.29766320E-12, -1.76486003E+04,
                       3.58850097E+00]),
                NASA([1000.00, 6000.00],
                     [ 4.54017480E+00,  4.15970971E-03, -1.30876777E-06,
                       2.00823615E-10, -1.15509243E-14, -1.79514029E+04,
                       8.55881745E-01])),
        transport=gas_transport(geom='nonlinear',
                                diam=3.458,
                                well_depth=107.4,
                                rot_relax=3.8),
        note='ATcT3E')

species(name='AR',
        atoms='Ar:1',
        thermo=(NASA([200.00, 1000.00],
                     [ 2.49988611E+00,  2.13037960E-07,  8.97320772E-10,
                      -2.31395752E-12,  1.30201393E-15, -7.45354481E+02,
                       4.38024367E+00]),
                NASA([1000.00, 6000.00],
                     [ 2.49989176E+00,  1.56134837E-07, -7.76108557E-11,
                       1.52928085E-14, -1.05304493E-18, -7.45328403E+02,
                       4.38029835E+00])),
        transport=gas_transport(geom='atom',
                                diam=3.33,
                                well_depth=136.5),
        note='ATcT3E')

species(name='HE',
        atoms='He:1',
        thermo=(NASA([200.00, 1000.00],
                     [ 2.49976293E+00,  1.01013432E-06, -8.24578465E-10,
                      -6.85983306E-13,  7.24751856E-16, -7.45340917E+02,
                       9.29800315E-01]),
                NASA([1000.00, 6000.00],
                     [ 2.49985609E+00,  2.19365392E-07, -1.07525085E-10,
                       2.07198041E-14, -1.39358612E-18, -7.45309155E+02,
                       9.29535014E-01])),
        transport=gas_transport(geom='atom',
                                diam=2.576,
                                well_depth=10.2),
        note='ATcT3E')

species(name='NO',
        atoms='N:1 O:1',
        thermo=(NASA([200.00, 1000.00],
                     [ 4.08517990E+00, -3.64693188E-03,  8.49607612E-06,
                      -6.62405734E-09,  1.77647373E-12,  9.84061267E+03,
                       2.83578236E+00]),
                NASA([1000.00, 6000.00],
                     [ 3.25487317E+00,  1.19869941E-03, -4.33028500E-07,
                       7.02943336E-11, -4.09788575E-15,  9.90699836E+03,
                       6.40395140E+00])),
        transport=gas_transport(geom='linear',
                                diam=3.339,
                                well_depth=139.32,
                                dipole=0.2,
                                polar=1.76,
                                rot_relax=4.0),
        note='ATcT3E')

species(name='N2O',
        atoms='N:2 O:1',
        thermo=(NASA([200.00, 1000.00],
                     [ 2.13942290E+00,  1.21800874E-02, -1.59189415E-05,
                       1.20920039E-08, -3.85125915E-12,  8.87008622E+03,
                       1.12477534E+01]),
                NASA([1000.00, 6000.00],
                     [ 4.80641382E+00,  2.65307443E-03, -9.70797397E-07,
                       1.62590150E-10, -9.96738154E-15,  8.19798219E+03,
                      -2.10607801E+00])),
        transport=gas_transport(geom='linear',
                                diam=3.828,
                                well_depth=232.4,
                                rot_relax=1.0),
        note='ATcT3E')

species(name='NO2',
        atoms='N:1 O:2',
        thermo=(NASA([200.00, 1000.00],
                     [ 3.78712696E+00, -4.29576834E-04,  1.37383818E-05,
                      -1.74264140E-08,  6.71249644E-12,  2.89500124E+03,
                       6.96592162E+00]),
                NASA([1000.00, 6000.00],
                     [ 4.90482285E+00,  2.14474498E-03, -8.12654059E-07,
                       1.55511957E-10, -1.04113963E-14,  2.28958979E+03,
                      -2.33567018E-01])),
        transport=gas_transport(geom='nonlinear',
                                diam=3.852,
                                well_depth=333.59,
                                dipole=0.4,
                                rot_relax=1.0),
        note='ATcT3E')

species(name='HNO',
        atoms='H:1 N:1 O:1',
        thermo=(NASA([200.00, 1000.00],
                     [ 4.55326160E+00, -5.84531688E-03,  1.88853744E-05,
                      -1.76039893E-08,  5.72889621E-12,  1.16315603E+04,
                       1.66850841E+00]),
                NASA([1000.00, 6000.00],
                     [ 3.24129053E+00,  2.72377193E-03, -1.60633296E-07,
                      -9.79134982E-11,  1.17103944E-14,  1.17745744E+04,
                       7.27913637E+00])),
        transport=gas_transport(geom='nonlinear',
                                diam=3.43,
                                well_depth=170.0,
                                dipole=1.62,
                                rot_relax=1.0),
        note='ATcT3E')

species(name='HNO2',
        atoms='H:1 N:1 O:2',
        thermo=(NASA([200.00, 1000.00],
                     [ 4.03779347E+00, -4.46123109E-03,  3.19440815E-05,
                      -3.79359490E-08,  1.44570885E-11, -6.53088236E+03,
                       5.90620097E+00]),
                NASA([1000.00, 6000.00],
                     [ 4.66358504E+00,  4.89854351E-03, -1.79694193E-06,
                       2.94420361E-10, -1.78235577E-14, -7.25216334E+03,
                      -3.06053640E-02])),
        transport=gas_transport(geom='nonlinear',
                                diam=3.95,
                                well_depth=350.0,
                                dipole=1.639,
                                rot_relax=1.0),
        note='ATcT3E')

species(name='HONO',
        atoms='H:1 N:1 O:2',
        thermo=(NASA([200.00, 1000.00],
                     [ 3.16416438E+00,  8.50517773E-03,  5.48561573E-07,
                      -8.27656474E-09,  4.39957151E-12, -1.07744086E+04,
                       1.00231941E+01]),
                NASA([1000.00, 6000.00],
                     [ 5.79144641E+00,  3.64630732E-03, -1.29112765E-06,
                       2.06498233E-10, -1.22138679E-14, -1.15974343E+04,
                      -4.07145349E+00])),
        transport=gas_transport(geom='nonlinear',
                                diam=3.95,
                                well_depth=350.0,
                                dipole=1.639,
                                rot_relax=1.0),
        note='ATcT3E')

species(name='HONO2',
        atoms='H:1 N:1 O:3',
        thermo=(NASA([200.00, 1000.00],
                     [ 1.55975056E+00,  2.01502169E-02, -1.15217296E-05,
                      -2.31891230E-09,  3.17580552E-12, -1.73955871E+04,
                       1.77294677E+01]),
                NASA([1000.00, 6000.00],
                     [ 8.03061257E+00,  4.46368336E-03, -1.72272779E-06,
                       2.91611606E-10, -1.80487362E-14, -1.93033764E+04,
                      -1.62543421E+01])),
        transport=gas_transport(geom='nonlinear',
                                diam=4.2,
                                well_depth=400.0,
                                dipole=0.2,
                                rot_relax=1.0),
        note='ATcT3E')

species(name='tHNNH',
        atoms='H:2 N:2',
        thermo=(NASA([298.00, 1000.00],
                     [ 3.88929213E+00, -3.21000860E-03,  1.94390510E-05,
                      -1.85473031E-08,  5.73712849E-12,  2.28940896E+04,
                       4.30388193E+00]),
                NASA([1000.00, 3000.00],
                     [ 1.90331153E+00,  8.56115359E-03, -3.95855194E-06,
                       8.78338614E-10, -7.60918709E-14,  2.30999238E+04,
                       1.29282804E+01])),
        transport=gas_transport(geom='nonlinear',
                                diam=3.798,
                                well_depth=71.4,
                                rot_relax=1.0),
        note='pw210418')

species(name='cHNNH',
        atoms='H:2 N:2',
        thermo=(NASA([298.00, 1000.00],
                     [ 3.99834419E+00, -3.85016242E-03,  2.01683140E-05,
                      -1.88422179E-08,  5.76266192E-12,  2.54958664E+04,
                       3.86368201E+00]),
                NASA([1000.00, 3000.00],
                     [ 1.79734239E+00,  8.59099031E-03, -3.94913340E-06,
                       8.73225938E-10, -7.54854178E-14,  2.57542095E+04,
                       1.35729570E+01])),
        transport=gas_transport(geom='nonlinear',
                                diam=3.798,
                                well_depth=71.4,
                                rot_relax=1.0),
        note='pw210418')

species(name='H2NN',
        atoms='H:2 N:2',
        thermo=(NASA([200.00, 1000.00],
                     [ 4.53204001E+00, -7.32418578E-03,  3.00803713E-05,
                      -3.04000551E-08,  1.04700639E-11,  3.49580003E+04,
                       1.51074195E+00]),
                NASA([1000.00, 6000.00],
                     [ 3.05903670E+00,  6.18382347E-03, -2.22171165E-06,
                       3.58539206E-10, -2.14532905E-14,  3.48530149E+04,
                       6.69893515E+00])),
        transport=gas_transport(geom='nonlinear',
                                diam=3.798,
                                well_depth=71.4,
                                rot_relax=1.0),
        note='IsodiazeneT9/11')

species(name='NH2OH',
        atoms='H:3 N:1 O:1',
        thermo=(NASA([200.00, 1000.00],
                     [ 3.21016092E+00,  6.19671676E-03,  1.10594948E-05,
                      -1.96668262E-08,  8.82516590E-12, -6.58148481E+03,
                       7.93293571E+00]),
                NASA([1000.00, 6000.00],
                     [ 3.88112502E+00,  8.15708448E-03, -2.82615576E-06,
                       4.37930933E-10, -2.52724604E-14, -6.86018419E+03,
                       3.79156136E+00])),
        transport=gas_transport(geom='nonlinear',
                                diam=3.492,
                                well_depth=116.7,
                                rot_relax=1.0),
        note='ATcT/A')

species(name='HNOH',
        atoms='H:2 N:1 O:1',
        thermo=(NASA([200.00, 1000.00],
                     [ 3.95608248E+00, -3.02611020E-03,  2.56874396E-05,
                      -3.15645120E-08,  1.24084574E-11,  1.09199790E+04,
                       5.55950983E+00]),
                NASA([1000.00, 6000.00],
                     [ 3.98321933E+00,  4.88846374E-03, -1.65086637E-06,
                       2.55371446E-10, -1.48308561E-14,  1.05780106E+04,
                       3.62582838E+00])),
        transport=gas_transport(geom='nonlinear',
                                diam=3.492,
                                well_depth=116.7,
                                rot_relax=1.0),
        note='trans&EquT11/11')

species(name='NH3',
        atoms='H:3 N:1',
        thermo=(NASA([200.00, 1000.00],
                     [ 4.14027871E+00, -3.58489142E-03,  1.89475904E-05,
                      -1.98833970E-08,  7.15267961E-12, -6.68545158E+03,
                      -1.66754883E-02]),
                NASA([1000.00, 4000.00],
                     [ 2.36074311E+00,  6.31850146E-03, -2.28966806E-06,
                       4.11767411E-10, -2.90836787E-14, -6.41596473E+03,
                       8.02154329E+00])),
        transport=gas_transport(geom='nonlinear',
                                diam=2.92,
                                well_depth=481.0,
                                dipole=1.47,
                                rot_relax=10.0),
        note='ATcT3E')

species(name='N2H4',
        atoms='H:4 N:2',
        thermo=(NASA([200.00, 1000.00],
                     [ 3.83472149E+00, -6.49129555E-04,  3.76848463E-05,
                      -5.00709182E-08,  2.03362064E-11,  1.00893925E+04,
                       5.75272030E+00]),
                NASA([1000.00, 6000.00],
                     [ 4.93957357E+00,  8.75017187E-03, -2.99399058E-06,
                       4.67278418E-10, -2.73068599E-14,  9.28265548E+03,
                      -2.69439772E+00])),
        transport=gas_transport(geom='nonlinear',
                                diam=4.23,
                                well_depth=205.0,
                                polar=4.26,
                                rot_relax=1.5),
        note='HYDRAZINEL5/90')

species(name='N',
        atoms='N:1',
        thermo=(NASA([200.00, 1000.00],
                     [ 2.49976643E+00,  5.02149594E-07,  1.93091211E-09,
                      -4.94632629E-12,  2.74089506E-15,  5.60760710E+04,
                       4.19499326E+00]),
                NASA([1000.00, 6000.00],
                     [ 2.41604245E+00,  1.74663766E-04, -1.18864562E-07,
                       3.01850054E-11, -2.03260159E-15,  5.61051512E+04,
                       4.64905706E+00])),
        transport=gas_transport(geom='atom',
                                diam=3.298,
                                well_depth=71.4),
        note='ATcT3E')

species(name='NO3',
        atoms='N:1 O:3',
        thermo=(NASA([200.00, 1000.00],
                     [ 3.35586850E+00,  1.06545436E-02, -2.86690494E-06,
                      -5.14711611E-09,  3.08532286E-12,  7.47534931E+03,
                       8.94786516E+00]),
                NASA([1000.00, 6000.00],
                     [ 7.37569146E+00,  2.21733003E-03, -5.75695789E-07,
                       6.69775424E-11, -2.58934700E-15,  6.22445577E+03,
                      -1.24945323E+01])),
        transport=gas_transport(geom='nonlinear',
                                diam=4.2,
                                well_depth=400.0,
                                dipole=0.2,
                                rot_relax=1.0),
        note='ATcT3E')

species(name='NH',
        atoms='H:1 N:1',
        thermo=(NASA([200.00, 1000.00],
                     [ 3.45887003E+00,  4.93904408E-04, -1.87862560E-06,
                       2.85542239E-09, -1.16864671E-12,  4.21088372E+04,
                       2.00373292E+00]),
                NASA([1000.00, 6000.00],
                     [ 2.79498941E+00,  1.29259567E-03, -3.85559094E-07,
                       6.26027608E-11, -3.70421913E-15,  4.23408998E+04,
                       5.68413752E+00])),
        transport=gas_transport(geom='linear',
                                diam=2.65,
                                well_depth=80.0,
                                rot_relax=4.0),
        note='ATcT3E')

species(name='NNH',
        atoms='H:1 N:2',
        thermo=(NASA([200.00, 1000.00],
                     [ 4.25474632E+00, -3.45098298E-03,  1.37788699E-05,
                      -1.33263744E-08,  4.41023397E-12,  2.88323793E+04,
                       3.28551762E+00]),
                NASA([1000.00, 6000.00],
                     [ 3.42744423E+00,  3.23295234E-03, -1.17296299E-06,
                       1.90508356E-10, -1.14491506E-14,  2.88067740E+04,
                       6.39209233E+00])),
        transport=gas_transport(geom='nonlinear',
                                diam=3.798,
                                well_depth=71.4,
                                rot_relax=1.0),
        note='T1/06')

species(name='NH2',
        atoms='H:2 N:1',
        thermo=(NASA([200.00, 1000.00],
                     [ 4.06463329E+00, -1.10021454E-03,  4.25849068E-06,
                      -2.68223583E-09,  5.89267407E-13,  2.11768668E+04,
                       4.39850770E-01]),
                NASA([1000.00, 3000.00],
                     [ 2.62499312E+00,  3.39841177E-03, -1.01630968E-06,
                       1.25510796E-10, -2.66500843E-15,  2.15419104E+04,
                       7.73537416E+00])),
        transport=gas_transport(geom='nonlinear',
                                diam=2.65,
                                well_depth=80.0,
                                polar=2.26,
                                rot_relax=4.0),
        note='ATcT3E')

species(name='H2NO',
        atoms='H:2 N:1 O:1',
        thermo=(NASA([200.00, 1000.00],
                     [ 3.93201139E+00, -1.64028165E-04,  1.39161409E-05,
                      -1.62747853E-08,  6.00352834E-12,  6.71178975E+03,
                       4.58837038E+00]),
                NASA([1000.00, 6000.00],
                     [ 3.75555914E+00,  5.16219354E-03, -1.76387387E-06,
                       2.75052692E-10, -1.60643143E-14,  6.51826177E+03,
                       4.30933053E+00])),
        transport=gas_transport(geom='nonlinear',
                                diam=3.492,
                                well_depth=116.7,
                                rot_relax=1.0),
        note='RADICALT09/09')

species(name='N2H3',
        atoms='H:3 N:2',
        thermo=(NASA([200.00, 1000.00],
                     [ 3.42125505E+00,  1.34901590E-03,  2.23459071E-05,
                      -2.99727732E-08,  1.20978970E-11,  2.58198956E+04,
                       7.83176309E+00]),
                NASA([1000.00, 6000.00],
                     [ 4.04483566E+00,  7.31130186E-03, -2.47625799E-06,
                       3.83733021E-10, -2.23107573E-14,  2.53241420E+04,
                       2.88423392E+00])),
        transport=gas_transport(geom='nonlinear',
                                diam=3.9,
                                well_depth=200.0,
                                rot_relax=1.0),
        note='Rad.T7/11')

#-------------------------------------------------------------------------------
# Reaction data
#-------------------------------------------------------------------------------

# Reaction 1
reaction('NH + H <=> N + H2', [3.500000e+13, 0.0, 0.0])

# Reaction 2
reaction('NO2 + NO2 => NO + NO + O2', [4.500000e+12, 0.0, 27599.0])

# Reaction 3
reaction('NH2 + NH2 <=> tHNNH + H2', [1.700000e+08, 1.02, 11783.0])

# Reaction 4
reaction('NH2 + OH <=> NH + H2O', [3.300000e+06, 1.949, -217.0])

# Reaction 5
reaction('HO2 + H <=> H2O + O', [1.400000e+12, 0.0, 0.0])

# Reaction 6
reaction('NO3 + H <=> NO2 + OH', [6.000000e+13, 0.0, 0.0])

# Reaction 7
reaction('NH3 + H <=> NH2 + H2', [5.400000e+05, 2.4, 9916.0])

# Reaction 8
reaction('NNH + NO <=> N2 + HNO', [5.000000e+13, 0.0, 0.0])

# Reaction 9
falloff_reaction('HNO + H (+ M) <=> H2NO (+ M)',
                 kf=[5.500000e+13, 0.0, 3250.0],
                 kf0=[1.500000e+19, -1.632, 0.0],
                 efficiencies='H2O:10.0')

# Reaction 10
reaction('N2H3 + OH <=> NH3 + HNO', [1.000000e+12, 0.0, 15000.0])

# Reaction 11
reaction('H + O2 + OH <=> H2O + O2', [2.600000e+22, -1.835, 800.0],
         options='duplicate')

# Reaction 12
reaction('N2H3 + H <=> H2NN + H2', [3.100000e+06, 2.11, 288.0])

# Reaction 13
reaction('NH2 + HONO <=> NH2OH + NO', [5.300000e+03, 2.28, 7983.0])

# Reaction 14
reaction('NH2OH + NH2 <=> HNOH + NH3', [1.100000e-01, 4.0, -97.0])

# Reaction 15
reaction('NH2OH + NH2 <=> H2NO + NH3', [9.500000e+00, 3.42, -1013.0])

# Reaction 16
falloff_reaction('NO2 + OH (+ M) <=> HONO2 (+ M)',
                 kf=[3.000000e+13, 0.0, 0.0],
                 kf0=[2.938000e+25, -3.0, 0.0],
                 falloff=Troe(A=0.4, T3=1e-30, T1=1e+30, T2=1e+30))

# Reaction 17
reaction('tHNNH + NH2 <=> NNH + NH3', [2.700000e+05, 2.226, -1034.0])

# Reaction 18
three_body_reaction('H + O + M <=> OH + M', [4.700000e+18, -1.0, 0.0],
                    efficiencies='AR:0.75 H2:2.5 H2O:12.0',
                    options='duplicate')

# Reaction 19
reaction('NH2 + NO <=> N2 + H2O', [2.600000e+19, -2.369, 870.0])

# Reaction 20
reaction('HNOH + HO2 <=> NH2OH + O2', [2.900000e+04, 2.69, -1600.0])

# Reaction 21
reaction('HNOH + NH2 <=> H2NN + H2O', [8.800000e+16, -1.08, 1113.0])

# Reaction 22
reaction('H2NN + O <=> NNH + OH', [3.300000e+08, 1.5, -894.0])

# Reaction 23
reaction('H + O2 + H <=> H2 + O2', [8.800000e+22, -1.835, 800.0],
         options='duplicate')

# Reaction 24
reaction('HONO + H <=> NO + H2O', [4.300000e+09, 0.98, 4070.0])

# Reaction 25
reaction('H2O + H2O => H + OH + H2O', [1.000000e+26, -2.44, 120180.0])

# Reaction 26
reaction('NH2OH + H <=> HNOH + H2', [4.800000e+08, 1.5, 6249.0])

# Reaction 27
reaction('NH2 + NO2 <=> H2NO + NO', [1.100000e+12, 0.11, -1186.0],
         options='duplicate')

# Reaction 28
reaction('NH2 + NO2 <=> H2NO + NO', [-4.300000e+17, -1.874, 588.0],
         options=['negative_A', 'duplicate'])

# Reaction 29
reaction('NH2 + NH <=> NH3 + N', [9.600000e+03, 2.46, 107.0])

# Reaction 30
reaction('NH2OH + H <=> H2NO + H2', [2.400000e+08, 1.5, 5067.0])

# Reaction 31
reaction('NO2 + O <=> NO + O2', [1.100000e+14, -0.52, 0.0])

# Reaction 32
reaction('N2O + NO <=> NO2 + N2', [5.300000e+05, 2.23, 46280.0])

# Reaction 33
reaction('NH3 + O <=> NH2 + OH', [9.400000e+06, 1.94, 6460.0])

# Reaction 34
reaction('HNOH + NH2 <=> N2H3 + OH', [1.000000e+01, 3.46, -467.0])

# Reaction 35
reaction('N2H3 + OH <=> tHNNH + H2O', [1.200000e+06, 2.0, -1192.0])

# Reaction 36
reaction('OH + OH <=> O + H2O', [2.000000e+07, 1.651, 631.0],
         options='duplicate')

# Reaction 37
reaction('OH + OH <=> O + H2O', [2.600000e+11, -0.057, -827.0],
         options='duplicate')

# Reaction 38
reaction('N2H4 + H <=> N2H3 + H2', [2.700000e+05, 2.56, 1218.0])

# Reaction 39
reaction('N2H3 + HO2 <=> tHNNH + H2O2', [1.400000e+04, 2.69, -1600.0])

# Reaction 40
reaction('NH2 + HO2 <=> NH3 + O2', [6.000000e+18, -1.913, 306.0],
         options='duplicate')

# Reaction 41
reaction('NH2 + HO2 <=> NH3 + O2', [5.900000e+07, 1.592, -1373.0],
         options='duplicate')

# Reaction 42
reaction('H2 + AR => H + H + AR', [5.800000e+18, -1.1, 104380.0])

# Reaction 43
pdep_arrhenius('HNO + OH <=> H + HONO',
               [(0.01, 'atm'), 1.100000e+03, 2.76, 4439.0],
               [(0.1, 'atm'), 1.100000e+03, 2.75, 4450.0],
               [(0.316, 'atm'), 1.200000e+03, 2.74, 4476.0],
               [(1.0, 'atm'), 1.500000e+03, 2.72, 4554.0],
               [(3.16, 'atm'), 2.700000e+03, 2.64, 4768.0],
               [(10.0, 'atm'), 9.700000e+03, 2.49, 5253.0],
               [(31.6, 'atm'), 5.300000e+04, 2.29, 6063.0],
               [(100.0, 'atm'), 1.000000e+05, 2.24, 6951.0])

# Reaction 44
reaction('N2H4 + NO <=> N2H3 + HNO', [6.000000e+01, 3.16, 30845.0])

# Reaction 45
reaction('HONO2 + H <=> H2 + NO3', [5.600000e+08, 1.5, 16400.0])

# Reaction 46
reaction('tHNNH + O <=> NH2 + NO', [1.000000e+13, 0.0, 0.0])

# Reaction 47
reaction('NH + NO <=> N2 + OH', [6.800000e+14, -0.78, 20.0])

# Reaction 48
reaction('NH3 + HO2 <=> NH2 + H2O2', [1.200000e+00, 3.839, 17260.0])

# Reaction 49
falloff_reaction('cHNNH (+ M) <=> NNH + H (+ M)',
                 kf=[5.700000e+16, 0.0, 58700.0],
                 kf0=[9.600000e+35, -5.44, 63900.0],
                 falloff=Troe(A=0.44, T3=520.0, T1=6150.0))

# Reaction 50
reaction('NH2OH + OH <=> HNOH + H2O', [1.500000e+04, 2.61, -3537.0])

# Reaction 51
reaction('NH2OH + OH <=> H2NO + H2O', [1.500000e+05, 2.28, -1296.0])

# Reaction 52
reaction('OH + H2 <=> H + H2O', [2.200000e+08, 1.51, 3430.0])

# Reaction 53
#reaction('NH2 + O <=> NH + OH', [7.000000e+12, 0.0, 0.0],
#         options='duplicate')
# commenting out in favor of SJK

# Reaction 54
#reaction('NH2 + O <=> NH + OH', [8.600000e-01, 4.01, 1673.0],
#         options='duplicate')
# commenting out in favor of SJK

# Reaction 55
reaction('NH2 + NO <=> NNH + OH', [4.300000e+10, 0.294, -866.0])

# Reaction 56