"""
iC8-iC12 model (2019) version 1.0. LLNL

fuel name in model:
iC8: IC8
iC12: XC12H26
!
"""

units(length='cm', time='s', quantity='mol', act_energy='cal/mol')

ideal_gas(name='gas',
          elements="C H N O Ar He",
          species="""IC8D4-5AR         IC8D4-5AO2R       HMN
                     X1C11H23          X4C11H23          XC12H26
                     X1C12H25          X2C12H25          X3C12H25
                     X4C12H25          X1C12H25O         X2C12H25O
                     X3C12H25O         X4C12H25O         X1C12H25OOH
                     X2C12H25OOH       X3C12H25OOH       X4C12H25OOH
                     XC12H25O2-1       XC12H25O2-2       XC12H25O2-3
                     XC12H25O2-4       XC12OOH1-1        XC12OOH1-2
                     XC12OOH1-3        XC12OOH1-4        XC12OOH1-2P
                     XC12OOH2-1        XC12OOH2-3        XC12OOH2-4
                     XC12OOH2-1P       XC12OOH2-2P       XC12OOH3-1
                     XC12OOH3-2        XC12OOH3-4        XC12OOH4-1
                     XC12OOH4-2        XC12OOH4-3        XC12H24-3
                     XC12H24-4         XC12OOH1-1O2      XC12OOH1-2O2
                     XC12OOH1-3O2      XC12OOH1-4O2      XC12OOH1-2PO2
                     XC12OOH2-1O2      XC12OOH2-3O2      XC12OOH2-4O2
                     XC12OOH2-1PO2     XC12OOH2-2PO2     XC12OOH3-1O2
                     XC12OOH3-2O2      XC12OOH3-4O2      XC12OOH4-1O2
                     XC12OOH4-2O2      XC12OOH4-3O2      XC12CYO1-1
                     XC12CYO1-2        XC12CYO1-3        XC12CYO1-4
                     XC12CYO1-2P       XC12CYO2-3        XC12CYO2-4
                     XC12CYO2-2P       XC12CYO3-4        XC12H23-42
                     XC12KET1-1        XC12KET1-2        XC12KET1-3
                     XC12KET1-4        XC12KET1-2P       XC12KET2-1
                     XC12KET2-3        XC12KET2-4        XC12KET2-1P
                     XC12KET2-2P       XC12KET4-1        XC12KET4-2
                     XC12KET4-3        X1C11H22          X2C11H22
                     X3C11H22          XC11H21           XC12Q1-D2
                     XC12Q1-D2P        XC12Q1-D3         XC12Q2-D3
                     XC12Q2-D2P        XC12Q4-D2         XC12Q11-R1
                     XC12Q11-R2        XC12Q11-R3        XC12Q11-R4
                     XC12Q11-R2P       XC12Q12P-R1       XC12Q12P-R1P
                     XC12Q12P-R2       XC12Q12P-R3       XC12Q12P-R4
                     XC12Q12-R1        XC12Q12-R1P       XC12Q12-R2P
                     XC12Q12-R3        XC12Q12-R4        XC12Q13-R1
                     XC12Q13-R1P       XC12Q13-R2        XC12Q13-R2P
                     XC12Q13-R4        XC12Q14-R1        XC12Q14-R1P
                     XC12Q14-R2        XC12Q14-R2P       XC12Q14-R3
                     XC12Q22P-R1       XC12Q22P-R3       XC12Q22P-R4
                     XC12Q23-R1        XC12Q23-R1P       XC12Q23-R2P
                     XC12Q23-R4        XC12Q24-R1        XC12Q24-R1P
                     XC12Q24-R2P       XC12Q24-R3        XC12Q34-R1
                     XC12Q34-R2        ET11XC12Q1        ET11XC12Q2
                     ET11XC12Q2P       ET11XC12Q3        ET11XC12Q4
                     ET12XC12Q1        ET12XC12Q1P       ET12XC12Q2P
                     ET12XC12Q3        ET12XC12Q4        ET22PXC12Q1
                     ET22PXC12Q3       ET22PXC12Q4       ET24XC12Q1
                     ET24XC12Q1P       ET24XC12Q2P       ET24XC12Q3
                     ET13XC12Q1        ET13XC12Q1P       ET13XC12Q2
                     ET13XC12Q2P       ET13XC12Q4        ET23XC12Q2P
                     ET23XC12Q1        ET23XC12Q1P       ET23XC12Q4
                     ET34XC12Q1        ET34XC12Q2        ET14XC12Q1
                     ET14XC12Q1P       ET14XC12Q2        ET14XC12Q2P
                     ET14XC12Q3        ET12PXC12Q1       ET12PXC12Q2
                     ET12PXC12Q3       ET12PXC12Q4       HMN-R1
                     HMN-R2            HMN-R3            HMN-R4
                     HMN-R5            HMN-R6            HMN-R7
                     HMN-R8            AC16H32           BC16H32
                     CC16H32           HC16H31           HMN-R1O
                     HMN-R2O           HMN-R3O           HMN-R4O
                     HMN-R5O           HMN-R6O           HMN-R7O
                     HMN-R8O           HMN-R1O2          HMN-R2O2
                     HMN-R3O2          HMN-R4O2          HMN-R5O2
                     HMN-R6O2          HMN-R7O2          HMN-R8O2
                     HMNOOH1-1         HMNOOH1-2         HMNOOH1-3
                     HMNOOH1-4         HMNOOH2-1         HMNOOH2-3
                     HMNOOH2-4         HMNOOH2-5         HMNOOH2-6
                     HMNOOH2-7         HMNOOH3-1         HMNOOH3-2
                     HMNOOH3-3         HMNOOH3-4         HMNOOH3-5
                     HMNOOH3-6         HMNOOH3-7         HMNOOH4-1
                     HMNOOH4-2         HMNOOH4-3         HMNOOH4-5
                     HMNOOH4-6         HMNOOH4-7         HMNOOH4-8
                     HMNOOH5-2         HMNOOH5-3         HMNOOH5-4
                     HMNOOH5-6         HMNOOH5-7         HMNOOH5-8
                     HMNOOH6-2         HMNOOH6-3         HMNOOH6-4
                     HMNOOH6-5         HMNOOH6-7         HMNOOH6-8
                     HMNOOH7-2         HMNOOH7-3         HMNOOH7-4
                     HMNOOH7-5         HMNOOH7-6         HMNOOH7-8
                     HMNOOH8-4         HMNOOH8-5         HMNOOH8-6
                     HMNOOH8-7         HMNOOH8-8         HMNOOH1-1O2
                     HMNOOH1-2O2       HMNOOH1-3O2       HMNOOH1-4O2
                     HMNOOH2-1O2       HMNOOH2-3O2       HMNOOH2-4O2
                     HMNOOH2-5O2       HMNOOH2-6O2       HMNOOH2-7O2
                     HMNOOH3-1O2       HMNOOH3-2O2       HMNOOH3-3O2
                     HMNOOH3-4O2       HMNOOH3-5O2       HMNOOH3-6O2
                     HMNOOH3-7O2       HMNOOH4-1O2       HMNOOH4-2O2
                     HMNOOH4-3O2       HMNOOH4-5O2       HMNOOH4-6O2
                     HMNOOH4-7O2       HMNOOH4-8O2       HMNOOH5-2O2
                     HMNOOH5-3O2       HMNOOH5-4O2       HMNOOH5-6O2
                     HMNOOH5-7O2       HMNOOH5-8O2       HMNOOH6-2O2
                     HMNOOH6-3O2       HMNOOH6-4O2       HMNOOH6-5O2
                     HMNOOH6-7O2       HMNOOH6-8O2       HMNOOH7-2O2
                     HMNOOH7-3O2       HMNOOH7-4O2       HMNOOH7-5O2
                     HMNOOH7-6O2       HMNOOH7-8O2       HMNOOH8-4O2
                     HMNOOH8-5O2       HMNOOH8-6O2       HMNOOH8-7O2
                     HMNOOH8-8O2       HMN-R1OOH         HMN-R2OOH
                     HMN-R3OOH         HMN-R4OOH         HMN-R5OOH
                     HMN-R6OOH         HMN-R7OOH         HMN-R8OOH
                     HMNO1-1           HMNO1-2           HMNO1-3
                     HMNO1-4           HMNO2-3           HMNO2-4
                     HMNO2-5           HMNO2-6           HMNO2-7
                     HMNO3-3           HMNO3-4           HMNO3-5
                     HMNO3-6           HMNO3-7           HMNO4-5
                     HMNO4-6           HMNO4-7           HMNO4-8
                     HMNO5-6           HMNO5-7           HMNO5-8
                     HMNO6-7           HMNO6-8           HMNO7-8
                     HMNO8-8           HMNKET1-1         HMNKET1-2
                     HMNKET1-3         HMNKET1-4         HMNKET2-1
                     HMNKET2-3         HMNKET2-4         HMNKET2-5
                     HMNKET2-6         HMNKET2-7         HMNKET3-1
                     HMNKET3-2         HMNKET3-3         HMNKET3-4
                     HMNKET3-5         HMNKET3-6         HMNKET3-7
                     HMNKET4-1         HMNKET4-2         HMNKET4-3
                     HMNKET4-5         HMNKET4-6         HMNKET4-7
                     HMNKET4-8         HMNKET6-2         HMNKET6-3
                     HMNKET6-4         HMNKET6-5         HMNKET6-7
                     HMNKET6-8         HMNKET7-2         HMNKET7-3
                     HMNKET7-4         HMNKET7-5         HMNKET7-6
                     HMNKET7-8         HMNKET8-4         HMNKET8-5
                     HMNKET8-6         HMNKET8-7         HMNKET8-8
                     AC16H31Q1         AC16H31Q2         BC16H31Q2
                     CC16H31Q2         AC16H31Q3         BC16H31Q3
                     CC16H31Q3         BC16H31Q4         CC16H31Q4
                     AC16H31Q6         CC16H31Q6         AC16H31Q7
                     AC16H31Q8         BC16H31Q8         CC16H31Q8
                     HMNQ11-R1         HMNQ11-R2         HMNQ11-R3
                     HMNQ11-R4         HMNQ12-R1         HMNQ12-R3
                     HMNQ12-R4         HMNQ12-R5         HMNQ12-R6
                     HMNQ12-R7         HMNQ13-R1         HMNQ13-R2
                     HMNQ13-R3         HMNQ13-R4         HMNQ13-R5
                     HMNQ13-R6         HMNQ13-R7         HMNQ14-R1
                     HMNQ14-R2         HMNQ14-R3         HMNQ14-R5
                     HMNQ14-R6         HMNQ14-R7         HMNQ14-R8
                     HMNQ23-R1         HMNQ23-R3         HMNQ23-R4
                     HMNQ23-R5         HMNQ23-R6         HMNQ23-R7
                     HMNQ24-R1         HMNQ24-R3         HMNQ24-R5
                     HMNQ24-R6         HMNQ24-R7         HMNQ24-R8
                     HMNQ25-R1         HMNQ25-R3         HMNQ25-R4
                     HMNQ25-R6         HMNQ25-R7         HMNQ25-R8
                     HMNQ26-R1         HMNQ26-R3         HMNQ26-R4
                     HMNQ26-R5         HMNQ26-R7         HMNQ26-R8
                     HMNQ27-R1         HMNQ27-R3         HMNQ27-R4
                     HMNQ27-R5         HMNQ27-R6         HMNQ27-R8
                     HMNQ33-R1         HMNQ33-R2         HMNQ33-R4
                     HMNQ33-R5         HMNQ33-R6         HMNQ33-R7
                     HMNQ34-R1         HMNQ34-R2         HMNQ34-R3
                     HMNQ34-R5         HMNQ34-R6         HMNQ34-R7
                     HMNQ34-R8         HMNQ35-R1         HMNQ35-R2
                     HMNQ35-R3         HMNQ35-R4         HMNQ35-R6
                     HMNQ35-R7         HMNQ35-R8         HMNQ36-R1
                     HMNQ36-R2         HMNQ36-R3         HMNQ36-R4
                     HMNQ36-R5         HMNQ36-R7         HMNQ36-R8
                     HMNQ37-R1         HMNQ37-R2         HMNQ37-R3
                     HMNQ37-R4         HMNQ37-R5         HMNQ37-R6
                     HMNQ37-R8         HMNQ45-R1         HMNQ45-R2
                     HMNQ45-R3         HMNQ45-R6         HMNQ45-R7
                     HMNQ45-R8         HMNQ46-R1         HMNQ46-R2
                     HMNQ46-R3         HMNQ46-R5         HMNQ46-R7
                     HMNQ46-R8         HMNQ47-R1         HMNQ47-R2
                     HMNQ47-R3         HMNQ47-R5         HMNQ47-R6
                     HMNQ47-R8         HMNQ48-R1         HMNQ48-R2
                     HMNQ48-R3         HMNQ48-R5         HMNQ48-R6
                     HMNQ48-R7         HMNQ48-R8         HMNQ56-R2
                     HMNQ56-R3         HMNQ56-R4         HMNQ56-R7
                     HMNQ56-R8         HMNQ57-R2         HMNQ57-R3
                     HMNQ57-R4         HMNQ57-R6         HMNQ57-R8
                     HMNQ58-R2         HMNQ58-R3         HMNQ58-R4
                     HMNQ58-R6         HMNQ58-R7         HMNQ58-R8
                     HMNQ67-R2         HMNQ67-R3         HMNQ67-R4
                     HMNQ67-R5         HMNQ67-R8         HMNQ68-R2
                     HMNQ68-R3         HMNQ68-R4         HMNQ68-R5
                     HMNQ68-R7         HMNQ68-R8         HMNQ78-R2
                     HMNQ78-R4         HMNQ78-R5         HMNQ78-R6
                     HMNQ78-R8         HMNQ78-R3         HMNQ88-R4
                     HMNQ88-R5         HMNQ88-R6         HMNQ88-R7
                     HMNQ88-R8         ET11HMNQ1         ET11HMNQ2
                     ET11HMNQ3         ET11HMNQ4         ET12HMNQ1
                     ET12HMNQ3         ET12HMNQ4         ET12HMNQ5
                     ET12HMNQ6         ET12HMNQ7         ET13HMNQ1
                     ET13HMNQ2         ET13HMNQ3         ET13HMNQ4
                     ET13HMNQ5         ET13HMNQ6         ET13HMNQ7
                     ET14HMNQ1         ET14HMNQ3         ET14HMNQ2
                     ET14HMNQ5         ET14HMNQ6         ET14HMNQ7
                     ET14HMNQ8         ET23HMNQ1         ET23HMNQ3
                     ET23HMNQ4         ET23HMNQ5         ET23HMNQ6
                     ET23HMNQ7         ET24HMNQ1         ET24HMNQ3
                     ET24HMNQ5         ET24HMNQ6         ET24HMNQ7
                     ET24HMNQ8         ET25HMNQ1         ET25HMNQ3
                     ET25HMNQ4         ET25HMNQ6         ET25HMNQ7
                     ET25HMNQ8         ET26HMNQ1         ET26HMNQ3
                     ET26HMNQ4         ET26HMNQ5         ET26HMNQ7
                     ET27HMNQ1         ET27HMNQ3         ET27HMNQ4
                     ET27HMNQ5         ET27HMNQ6         ET27HMNQ8
                     ET36HMNQ1         ET37HMNQ1         ET33HMNQ1
                     ET33HMNQ2         ET33HMNQ4         ET33HMNQ5
                     ET33HMNQ6         ET33HMNQ7         ET34HMNQ1
                     ET34HMNQ2         ET34HMNQ3         ET34HMNQ5
                     ET34HMNQ6         ET34HMNQ7         ET34HMNQ8
                     ET35HMNQ1         ET35HMNQ2         ET35HMNQ3
                     ET35HMNQ4         ET35HMNQ6         ET35HMNQ7
                     ET35HMNQ8         ET36HMNQ2         ET36HMNQ3
                     ET36HMNQ4         ET36HMNQ5         ET36HMNQ7
                     ET37HMNQ2         ET37HMNQ3         ET37HMNQ4
                     ET37HMNQ5         ET37HMNQ6         ET45HMNQ1
                     ET45HMNQ2         ET45HMNQ3         ET45HMNQ6
                     ET45HMNQ7         ET45HMNQ8         ET46HMNQ1
                     ET46HMNQ2         ET46HMNQ3         ET46HMNQ5
                     ET46HMNQ7         ET46HMNQ8         ET47HMNQ1
                     ET47HMNQ2         ET47HMNQ3         ET47HMNQ5
                     ET47HMNQ6         ET47HMNQ8         ET48HMNQ1
                     ET48HMNQ2         ET48HMNQ3         ET48HMNQ5
                     ET48HMNQ6         ET48HMNQ7         ET48HMNQ8
                     ET56HMNQ2         ET56HMNQ3         ET56HMNQ4
                     ET56HMNQ7         ET56HMNQ8         ET57HMNQ2
                     ET57HMNQ3         ET57HMNQ4         ET57HMNQ6
                     ET57HMNQ8         ET58HMNQ2         ET58HMNQ3
                     ET58HMNQ4         ET58HMNQ6         ET58HMNQ7
                     ET58HMNQ8         ET67HMNQ2         ET67HMNQ3
                     ET67HMNQ4         ET67HMNQ5         ET67HMNQ8
                     ET68HMNQ2         ET68HMNQ3         ET68HMNQ4
                     ET68HMNQ5         ET68HMNQ7         ET68HMNQ8
                     ET78HMNQ3         ET78HMNQ4         ET78HMNQ5
                     ET78HMNQ6         ET78HMNQ8         ET88HMNQ4
                     ET88HMNQ5         ET88HMNQ6         ET88HMNQ7
                     ET88HMNQ8         AC15H31           BC15H31
                     CC15H31           DC15H31           FC12H25
                     SC11H23           IC9-R1            AC15H30
                     BC15H30           CC15H30           DC15H30
                     EC15H30           FC15H30           GC15H30
                     HC15H30           IC15H30           AC15H29
                     AC12H24           AC12H23           CC11H22
                     DC11H22           AC10H20           AC10H19
                     AC9H17            NEC5COCH3         NEC5COCH2
                     NC9H19COCH3       NC9H18COCH3       NC9H19COCH2
                     TC4COC3H5         TC4XCOC3H5        TC4COC3H4
                     IC8H17CHO         IC8H17CO          DC7H15CHO
                     DC7H15CO          AC11H23CHO        AC11H23CO
                     HC11H23CHO        HC11H23CO         IC11H22CHO
                     HC7COC4H8         IC7CHO            IC7CO
                     IC7H13CHO         IC7H13CO          IC7H14CO
                     IC10H19CHO        IC10H19CO         NEC6H11CHO
                     NEC6H11CO         NFC6H11CHO        NFC6H11CO
                     IC9H20            IC9-R2            IC9Q1
                     IC9-1O2R          IC9Q1-R1          IC9Q1-R2
                     IC9Q1-R5          IC9Q2             IC9-2O2R
                     IC9Q2-R1          IC9O1-1           IC9O1-2
                     IC9O1-5           IC9KET1-1         IC9KET1-2
                     IC9KET2-1         IC9KET1-5         IC9Q11-R1
                     IC9Q11-R2         IC9Q11-R5         IC9Q1-1O2
                     IC9Q2-1O2         IC9Q1-2O2         IC9Q12-R1
                     IC9Q12-R5         ET11IC9Q1         ET11IC9Q2
                     ET12IC9Q1         ET12IC9Q5         ET15IC9Q1
                     ET15IC9Q2         IC9-1OR           IC9-2OR
                     IC9Q1-5O2         IC9Q15-R2         I24C7D13
                     I24C7D1-5R        NEOC5H11COCH3     NEOC5H10COCH3
                     NEOC5H11COCH2     IC4H7COCH3        IC3H6CHCOCH3
                     TC4H9CHCOCH3      CH3OCH2O          NC3H7COC2H3
                     NC4H9COC2H3       C5H11COC2H3       C6H13COC2H3
                     C5H11CHCO         C6H13CHCO         C7H15CHCO
                     C8H17CHCO         C9H19CHCO         C10H21CHCO
                     C11H23CHCO        NC3H7CHCO         NC4H9CHCO
                     NC18H37CHO        NC17H35CHO        NC16H33CHO
                     NC15H31CHO        NC14H29CHO        NC13H27CHO
                     NC12H25CHO        NC11H23CHO        NC10H21CHO
                     NC9H19CHO         NC8H17CHO         NC7H15CHO
                     NC6H13CHO         NC18H37CO         NC17H35CO
                     NC16H33CO         NC15H31CO         NC14H29CO
                     NC13H27CO         NC12H25CO         NC11H23CO
                     NC10H21CO         NC9H19CO          NC8H17CO
                     NC7H15CO          NC6H13CO          IC8D3-1O2R
                     IC8D4-1O2R        IC8D3OOH1-1AR     IC8D4OOH1-1AR
                     IC8D4OOH1-3R      IC8D4OOH1-5R      IC8D3O1-1A
                     IC8D4O1-1A        IC8D3KET1-1A      IC8D4KET1-1A
                     IC8D3OOH1-1AO2R   IC8D4OOH1-1AO2R   IC8D3
                     IC8D4             IC8D3-3R          IC8D3-3OOH
                     IC8D3-3O2R        IC8D4-5AOOH       IC8OH3Q4
                     IC8OH3Q4-1R       IC8OH3Q4-5R       IC8OH4Q3
                     IC8OH4Q3-1R       IC8OH4Q3-5R       IC8OH4Q5
                     IC8OH4Q5-1R       IC8OH4Q5-3R       IC8OH5Q4
                     IC8OH5Q4-1R       IC8OH5Q4-3R       IC8OH3Q14
                     IC8OH3Q4-1O2R     IC8OH3Q45         IC8OH3Q4-5O2R
                     IC8OH4Q13         IC8OH4Q3-1O2R     IC8OH4Q35
                     IC8OH4Q3-5O2R     IC8OH4Q15         IC8OH4Q5-1O2R
                     IC8OH4Q5-3O2R     IC8OH5Q14         IC8OH5Q4-1O2R
                     IC8OH5Q34         IC8OH5Q4-3O2R     IC8OH4KET31
                     IC8OH4KET35       IC8OH4KET51       IC8OH4KET53
                     IC8OH3Q14-5R      IC8OH3Q14-1AR     IC8OH3Q45-1R
                     IC8OH3Q45-5AR     IC8OH4Q13-1AR     IC8OH4Q13-5R
                     IC8OH4Q35-1R      IC8OH4Q35-5AR     IC8OH4Q15-1AR
                     IC8OH4Q15-5AR     IC8OH5Q14-3R      IC8OH5Q14-1AR
                     IC8OH5Q14-5AR     IC8OH5Q34-1R      IC8OH5Q34-5AR
                     IC8D4-3OH         IC8D3-3OH         IC8D4-5OH
                     IC8D3-5OH         IC8D4-5AOH        AR
                     N2                HE                H2
                     H                 O2                O
                     H2O               OH                OHV
                     H2O2              HO2               CO
                     CO2               HOCO              CH4
                     CH3               CH2               CH2(S)
                     C                 CH                CHV
                     CH3O2H            CH3O2             CH2O2H
                     CH3OH             CH3O              CH2OH
                     CH2O              HCO               HCOH
                     HO2CHO            HOCH2O2H          HOCH2O2
                     OCH2O2H           HOCH2O            O2CHO
                     HOCHO             OCHO              C2H6
                     C2H5              C2H5O2H           C2H5O2
                     C2H4              C2H3              CHOCHO
                     C2H3OOH           C2H3OO            CHCHO
                     C2H2              C2H               H2CC
                     C2H5OH            C2H5O             PC2H4OH
                     SC2H4OH           O2C2H4OH          C2H4O2H
                     C2H4O1-2          C2H3O1-2          CH3CHO
                     CH3CO             CH2CHO            O2CH2CHO
                     HO2CH2CO          C2H3OH            C2H2OH
                     CH2CO             HCCO              HCCOH
                     CH3CO3H           CH3CO3            CH3CO2
                     CH3OCH3           CH3OCH2           CH3OCH2O2H
                     CH3OCH2O2         CH2OCH2O2H        O2CH2OCH2O2H
                     HO2CH2OCHO        OCH2OCHO          HOCH2OCO
                     CH3OCHO           CH3OCO            CH2OCHO
                     C3H8              IC3H7             NC3H7
                     NC3H7O2H          NC3H7O2           IC3H7O2H
                     IC3H7O2           NC3H7O            IC3H7O
                     C3H6OOH1-2        C3H6OOH1-3        C3H6OOH2-1
                     C3H6OOH1-2O2      C3H6OOH1-3O2      C3H6OOH2-1O2
                     C3KET12           C3KET13           C3H51-2,3OOH
                     C3H52-1,3OOH      C3H5O1-2OOH-3     C3H5O1-3OOH-2
                     C3H6O1-2          C3H6O1-3          C3H6
                     C3H5-A            C3H5-S            C3H5-T
                     CC3H6             C3H5O             CH2CHOCH2
                     CH3CHCHO          AC4H7OOH          C3H6OH1-2
                     CH3CHCO           AC3H5OOH          C3H6OH2-1
                     HOC3H6O2          SC3H5OH           IC3H5OH
                     C3H5OH            CH2CCH2OH         C3H4-P
                     C3H4-A            C3H3              CC3H4
                     C3H2              H2CCC(S)          C3H2(S)
                     C3H2C             PC3H4OH-2         SC3H4OH
                     C3H3O             C3H3O2H           C2HCHO
                     C2H5CHO           C2H5CO            CH2CH2CHO
                     C2H3CHO           C2H3CO            CH3COCH3
                     CH3COCH2          CH3COCH2O2        CH3COCH2O
                     C3KET21           C4H10             PC4H9
                     SC4H9             PC4H9O            SC4H9O
                     PC4H9O2           SC4H9O2           PC4H9O2H
                     SC4H9O2H          C4H8OOH1-2        C4H8OOH1-3
                     C4H8OOH1-4        C4H8OOH2-1        C4H8OOH2-3
                     C4H8OOH2-4        C4H8O1-2          C4H8O1-3
                     C4H8O1-4          C4H8O2-3          C4H8OOH1-2O2
                     C4H8OOH1-3O2      C4H8OOH1-4O2      C4H8OOH2-1O2
                     C4H8OOH2-3O2      C4H8OOH2-4O2      C4H71-2,4OOH
                     C4H72-1,3OOH      C4H72-1,4OOH      C4H71-2,3OOH
                     C4H7O1-3OOH-4     C4H7O1-3OOH-2     C4H7O1-2OOH-4
                     C4H7O1-4OOH-2     C4H7O1-2OOH-3     C4H7O2-3OOH-1
                     C4H72-1OOH        NC4KET12          NC4KET13
                     NC4KET14          NC4KET21          NC4KET23
                     NC4KET24          C4H71-3OOH        C4H71-3,4OOH
                     C4H72-3,4OOH      HO2CH2CHO         IC4H10
                     IC4H9             TC4H9             TC4H9O
                     IC4H9O            IC4H8O            IC3H7CHO
                     IC3H7CO           IC3H6CHO          TC3H6CHO
                     IC3H5CHO          TC3H6O2CHO        IC3H5O2HCHO
                     TC3H6O2HCO        TC3H6OCHO         IC3H6CO
                     IC3H5CO           IC3H4CHO-A        SC4H7OH-I
                     IC4H9O2           TC4H9O2           IC4H8O2H-I
                     IC4H8O2H-T        TC4H8O2H-I        CC4H8O
                     IC4H8OOH-IO2      IC4H8OOH-TO2      TC4H8OOH-IO2
                     IC4KETII          IC4KETIT          TIC4H7Q2-I
                     IIC4H7Q2-I        IIC4H7Q2-T        IC4H7OOH
                     IC4H9O2H          TC4H9O2H          IC4H8
                     IC4H7             IC4H7-I1          IC4H7O2
                     IC4H6OOH-I        CCYCCOOC-T1       C2CYCOOC-I1
                     IC4H7O            CVCYCCOC          CCYC2OCO
                     CCYCCOOC-I2       CHOIC3H6O         IC3H5OOCH2
                     IC4H8OH-IT        IC4H8OH-TI        IC4H7OH
                     IC4H8OH           IC4H6OH           TQJC4H8OH
                     TQC4H8OI          QC4H7OHP          TQC4H7OHI
                     CCY(CCO)COH       C2CY(COC)OH       IQJC4H8OH
                     IC3H6OHCHO        IQC4H8OT          IQC4H7OHT
                     CCY(CCOC)OH       CH2COHCH2OOH      TC3H6OH
                     TQC4H7OHIO2       TQC4H7OHTO2       TQC4H7OHIQ-I
                     TQC4H7OHIQ-P      IC3H5COHQ         CH2CQCOHQ
                     IC3H5Q            COHQCYC(COC)      QCYC(CCOC)OH
                     HOCOCQ(CH3)2      IQC4H7OHTO2       IQC4H8OTQ-I
                     IQC4H7OHTQ-P      CHOC(CH3)OHCH2Q   CO(CH2OOH)2
                     IC3H5OCH2         IC4H7OOCH3        IC4H7OOIC4H7
                     C4H8-1            C4H8-2            C4H71-1
                     C4H71-2           C4H71-3           C4H71-4
                     C4H72-2           C4H71-O           PC4H8OH-2
                     SC4H8OH-1         SC4H8OH-3         C4H71-3OH
                     C4H71-4OH         C4H71-1OH         C4H71-2OH
                     C4H72-1OH         C4H72-2OH         SQC4H8OP
                     PQC4H8OS          PQC4H7OHS-3       NC4KET12OH
                     SQC4H7OHS-4       SQC4H8OS          NC4KET23OH
                     SC4H8OH-3O2       CCY(COCC)OH       C4H7O2-1
                     C4H6-1            AC3H5OCH2         SC3H5OCH2-1
                     C8H141-5,3-4      C8H141-5,3        C8H142-6
                     C8H131-5,3-4,TA   C8H131-5,3,TA     C8H131-5,3,SA
                     C8H131-5,3,PA     C8H132-6,SA       C8H132-6,PA
                     C6H101-3,3        C8H131-5,3-4,TAO  C8H131-5,3,TAO
                     C8H131-5,3,SAO    C8H131-5,3,PAO    C8H132-6,SAO
                     C8H132-6,PAO      C7H111-5,3,6P     C7H111-5,1P
                     C4H64,2-1OH       C4H63,1-1OH       C4H63,1-3OH
                     C4H63,1-2OH       C4H5OH-13         SQC4H7OHP-4
                     CY(CCCO)COH       NC4KET21OH        C2H5CHOHCO
                     CH3COCOHCH3       C2H4COCH2OH       CH3COHCO
                     CH2COHCHO         SQC4H7OHP-4O2     PQC4H7OHS-3O2
                     SQC4H7OHS-4O2     C4H7O2-1,3OOH     NC4KET13OH-2
                     NC4KET24OH-1      NC4KET24OH-3      C4H6OHOOH1-4-3
                     C4H6OHOOH2-2-1    C4H6OHOOH1-3-4    C4H6OHOOH1-2-3
                     HOCH2CHO          C4H71-4OOH        C4H71-4O2
                     C4H61-3OOH4       C4H6O1-3OOH4      C4H6O2-1OOH4
                     HOCH2COCH2        HOCH2CO           HOCHCHO
                     PC3H4OH-3         PC3H4OH-1         CH3COCHOH
                     SC2H2OH           PC4H8OH-1         PC4H8OH-3
                     C4H7O1-4          PC4H8OH-4         SC4H8OH-2
                     CH2COHCO          C4H72-2O2         C4H71-1O2
                     C4H71-2O2         C3H6OH1-1         PC4H8OH-2O2
                     SC4H8OH-1O2       C4H71-3OOCH3      C4H72-1OOCH3
                     C4H6              C4H612            C4H6-2
                     C4H5-I            C4H5-N            C4H5-2
                     C4H4              C4H3-I            C4H3-N
                     C4H2              C4H6O25           C2H3CHOCH2
                     C4H4O             C4H6O23           CH2CHCHCHO
                     H2C4O             NC3H7CHO          NC3H7CO
                     C3H6CHO-1         C3H6CHO-2         C3H6CHO-3
                     SC3H5CHO          SC3H5CO           C2H5COCH3
                     C2H5COCH2         CH2CH2COCH3       CH3CHCOCH3
                     C2H3COCH3         CH3CHOOCOCH3      CH2CHOOHCOCH3
                     C2H5CHCO          NC5H12            C5H11-1
                     C5H11-2           C5H11-3           C5H11O2H-1
                     C5H11O2H-2        C5H11O2H-3        C5H11O2-1
                     C5H11O2-2         C5H11O2-3         C5H11O-1
                     C5H11O-2          C5H11O-3          C5H10OOH1-2
                     C5H10OOH1-3       C5H10OOH1-4       C5H10OOH1-5
                     C5H10OOH2-1       C5H10OOH2-3       C5H10OOH2-4
                     C5H10OOH2-5       C5H10OOH3-1       C5H10OOH3-2