units(length='cm', time='s', quantity='mol', act_energy='cal/mol')

ideal_gas(name='gas',
          elements="O N H He C Ar",
          species="""HE                C4H71-3OOH        C2H5CO2
                     C3H6CHO-3         C3H5O32           C3H2(S)
                     CH3COCOHCH2       HO2CH2CHO         CH3OCH2OH
                     IIC4H7Q2-T        C4H6O23           CH3CH(OOH)CO3
                     C4H4O             COHOOHCY(COC)     C4H8OOH1-3
                     CH3CO2            PC4H8OH-1         C2H5CHOHCO
                     PQC4H7OHS-4       IC4H8OH           TQC3H5OHIO2
                     HCO               C2H4O2H           CCY(CCOC)OH
                     CH2(OH)OCH2       C4H10             C4H63,1-1OH
                     IC4QA-AOJ         IC4H7OOH          C4H61-3OOH4
                     C2H3OO            H2O               NC4KET23OH
                     QC3H5OHP          C3H5CHOQ2-1O2     IQC4H7OHTQ-P
                     IC4H7O            CH2CYCOO-CH2      OVCC(VC)COJ
                     IC3H5Q            C4H6O1-3OOH4      CH2CHO
                     C4H61-2OOH34      QCH3CHCO3H        CH3C(OH)CH
                     CO2               C2O               SC4H9
                     CH3OCO            SQC4H7OHP-4O2     IQC4H8OT
                     C2CYCOOC-I1       PQC4H7OHS-3       IC4H8OH-TI
                     C4H8OOH1-3O2      CCYC2OCO          C4H71-1
                     IC4H10            CH3CH(OO)CO3H     OCH2CHO
                     CHOCHO            C4H8-2            CH2CH(OOH)CO3H
                     C3H6OH1-1         IQC3H5OTQ-I       CH3OCH2O2H
                     SC3H4OH           C4H8O1-3          C4H6O25
                     C3H5CHOQ2-1       C3H6CHO-1         IC4H7O2
                     C3H6CHO-2         HO2CHO            PC4H9
                     NC3H7CHO          C3H3CHO           CH3CHOOCOCH3
                     CH2COOH           C4H61OOH3-4       IC4H9O2
                     C3H4-P            C4H71-2O2         IC4H6OOH-I
                     HCOCH(OOH)CHO     C2H5CO3H          SC4H7O-I
                     IC3H5CHO          C2H3OOH           CH3COCH
                     AC3H5OOH          NC3H7O2H          C2H5OH
                     CH2CHCHCHO        C4H71-3O2         OCH2O2H
                     CH3CO3H           C4H5-I            C3H51-2,3OOH
                     C4H5OJ1-2,4OOH    C3H6OOH1-3O2      CH3COH
                     C4H71-1OH         NC4KET14          IQC3H5OHPJC
                     TQC4H7OHIO2       SQC4H7OHP-1       H2CC
                     CH3COCOHCH3       SC3H5OO           C2HCHO
                     C4H7OH1O2-3       PC4H9O2H          OH
                     C4H64,2-1OH       C3H6OH1-3         C4H7O1-4
                     NC4KET12OH        TQC3H5OHIQ-I      IQC4H7OHTO2
                     CH2CH2CHO         cCH2OCH#CO3H      AC3H5OCH2
                     C4H7OH2O1-2       PQC4H7OHS-4O2     C4H8OOH1-2
                     SC4H8OH-2         IC4H6Q2-II        IQC3H5OHPJO2
                     C3KET13           OVCCCJVO          OCHO
                     C4H8OOH1-4O2      HOCH2O2H          C4H8OOH2-1O2
                     C2H5CHCO          HO2CH2CH(OOH)CO   CH2CHOCHO
                     C4H4O-OOH24       IC3H7CO           CVC(COOJ)COOH
                     C2H4COCH2OH       CH3COCHCHOQ1      C4H7OH1O1-2
                     CH2COHCH2O        IC4H8             C2H5COOH
                     QCH3CH(OOH)CO     HO2CH2CH(OO)CHO   C4H72-2OH
                     CYCOOC-CH2        CH2               MCP
                     C4H71-1O2         NC4KET21OH        C4H71-2,4OOH
                     O                 IC4H8OOH-IO2      N2
                     C3H4OHOOH1-3-2    C4H6              C3H2OHCH2Q
                     O2CH2OCH2O2H      QC3H5OHPO2        C3H6COQ1
                     SC2H4OH           O2CH2CHO          OVCCVCCVO
                     CH2COHCHO         OVCCVCCJVO        HOCH2OCO
                     C2H3CHOCH2        C2H5COCH2         C4H6OHOOH2-2-1
                     OHCOCOOHCH3       C4H4              KHO2CH2COCHO
                     C4H71-3           HOCH2O            C4H71-4OH
                     SQC4H7OHP-3       NC5H12            CH2OCH2O2H
                     CH2CCO            C4H72-3,4OOH      C3H4CH2OH-1OOH
                     C3H4-A            C3H5CHOQ1-3O2     PC4H8OH-2
                     C2H4OCHO          C2H5CHO           TQC3H5OHI
                     PC4H8OH-4         C2H3COOCH2        C4H6OH2KET1-4
                     CY(COC)COH        TC4H8OOH-IO2      HOCH2CO
                     QHO2CH2CHCHO      IC4KETIT          NC3H7CO
                     C3H5O1-2OOH-3     C2H3CHOHCH2O      CH3COCHOH
                     NC4H5O2           C4H71-2,3OOH      IC4YAA-R
                     O2CH2CH2CO3H      C3H6OOH2-1        C4H8O1-2
                     OVCC(VC)COOH      CH3COCHO          C3H6CHO-2O2
                     IC4H8O2H-I        IC3H7O            C4H7O13-4
                     C4H8OOH2-4O2      C4H5OH-13         CVOCVCCOOH
                     H                 IQC4H7OHT         NC3H7
                     SC3H5OCH2-1       C4H71-2           CH3CCHO
                     C2H3OH            C3H6O1-3          CH3CHCHO
                     IQC3H5OHQ-SJ      CH3CHO            OHCY(COCC)OOH
                     HO2               CYC2H3OCH2CHO     C3H6OOH1-2O2
                     C4H72-1O2         C4H8OOH2-1        C4H512-OO4
                     BUTA123TRIENE     CH3CYC2H2OCHO     O2C2H4OH
                     IC4H7O-1          TC3H6OH           C2H4COCHOQ3
                     AR                IC5H12            HO2CH2CH2CO3
                     SC3H5CHO          CH3OCH3           C3H5CHOQ3-1
                     NC3H7O            TC3H6OCHO         IC4H9O
                     CH2CHOCH2         C2                C4H7O2-1,3OOH
                     IC4H9O2H          C2H5O             HOCHO
                     CCY(COC)OHC       IC4H8O            CCYCCOOC-I2
                     C3H2              QCYC(CCOC)OH      CYCCCOO-3J
                     CH3COCH2          C3H6OH1-2         C4H7O12-4
                     TC4H8O2H-I        CH3CCO            C3H4O
                     KCHOCH2CO3H       C2H3CHOHCHO       C4H8O2-3
                     TQJC4H8OH         HCCOH             NC4KET13
                     C4H61KET43O       CDY(COCC)OH       C4H6OHOOH1-3-4
                     C4H5OH1-4OOH      CH3               IC3H7O2H
                     C3H8              CH3#CHCOO#        C2H2OH
                     IC3H7O2           IC4H7-I1          PC4H8OH-2O2
                     SC4H7OH-I         CH3CHCO           C4H72-1,3OOH
                     NC4KET21          CCY(CCO)COH       SQC4H8OP
                     CH2OCHO           C4H412-OOH34      CH3O2H
                     IC3H5CO           C4H6OHOOH1-2-3    TQC3H5OHTO2
                     CH3COOH           C4H8OOH2-3        C2H3COHOOH
                     C3H5O31           NC4KET13OH-2      C4H8-1
                     IC3H5COHQ         C3H6COQ2          IC4H8O2H-T
                     AC3H5CHO          C4H5OH1-4OOH-2OO  CC4H8O
                     OVCCCVO           HO2CH2cCHOCO#     CH2CO2
                     SC4H7OOH-I        C3H5CHOQ1-3       SC4H9O2
                     IC3H5OOCH2        HCOH              HO2CH2CO
                     PC3H4OH-2         C4H5-4            IQJC4H8OH
                     C4H72-1OH         C4H5-1            CH2COHCH2OOH
                     OVCCVCCOJ         C2H5COCH3         HOCH2O2
                     C2H4O1-2          O2CH2CH2CHO       CHOIC3H6O
                     O2CH2CH(OOH)CHO   CC3H6             C4Y1-3OR
                     CCY(COCC)OH       TQC3H5OHIQ-P      CCY(COC)OH
                     CH3O              IQC4H8OTQ-I       PC4H8OH-3
                     CH2O2H            C4H71-3,4OOH      SC4H9O2H
                     PC2H4OH           C4H5-N            SC4H9O
                     IC3H4CHO-A        C4H71-2OH         AC4H7OOH
                     IIC4H7Q2-I        CY(CCOC)OH        O2
                     C3H6CHO-1O2       NC3H7OH           C2H5
                     OCHCH2CH2O        CO                C3H2C
                     SQC4H7OHS-4       CH2OCH2CHO        C4H7O1-3OOH-2
                     CHOCOHCH3         C2H3COCH2Q        C4H51,3OH2
                     PC3H4OH-1         C4H7O23-1         CH3CO
                     C4H71-4           C4H3-N            CHOC(CH3)OHCH2Q
                     IC4H9             NEOC5H12          CH3O2
                     C2H3CHO           TQC4H7OHTO2       CH3CHCOCH3
                     IC3H7             C2H5O2H           C3H6OOH1-2
                     SQC4H7OHP-4       C4H6OH1KET2-3     CH2O
                     HO2CH2OCHO        C3H5-A            TC4H9O2H
                     C3H3OHCHO1-2OOH   C3H6O1-2          IC3H5OH
                     C3KET12           SQC4H8OS          PQC4H7OHS-3O2
                     CH2OH             NC4KET23          NC4KET24
                     NC4KET12          C2CY(COC)OH       CH2(S)
                     SC4H8OH-1O2       CH3COCH3          CH3COHCO
                     TC3H6O2HCO        C4H6-1            C2H5CO3
                     TC4H9O2           C4H7O1-2OOH-4     SC2H2OH
                     C3H6COQ3          C4H61-OOH34-OO2   COHQCYC(COC)
                     CH3OCHCH2         C4H7O1-3OOH-4     C3H4OH1KT2-3
                     C4H6OHOOH1-4-3    IC3H7CHO          CH3OH
                     C3H5OH            IC4H7OH           IC4H7
                     H2CCC(S)          TQJC3H6OH         SQC4H7OHS-3
                     SC4H7OH-IP        TQC3H6OI          C2H3O1-2
                     CH3OCH2           HOCHCHO           IC4H7-I1OO
                     C4H71-3OH         SQC4H7OHP-3O2     IC3H6OHCHO
                     TQC4H7OHI         C3H4O1-2          HOCH2CHO
                     IQJC3H6OH         CVCYCCOC          SC4H8OH-3
                     C4H6-2            CH2CH2COCH3       SC4H8OH-1
                     TC3H6CHO          C3H3              H2O2
                     CH3COCH2O2        CHOCOHCH2OOH      SC3H5CO
                     C4H7OH2O1-4       C4H5-3            H2
                     IC4H6OH           C4H8O1-4          C4H61-OOH3-OO4
                     CY(CCCO)COH       IC4YAA            SC4H8OH-3O2
                     C3H3CH2OOH        C2H3COCH2OH       C4H8OOH1-4
                     QHO2CH2CH2CO      TIC4H7Q2-I        C4H612
                     CH3CH(OO)CHO      CYC2H3OCHO        CCYCCOOC-T1
                     PQC4H8OS          CH2CCH2OH         CH3CO3
                     O2CHO             C4H7O2-1          C3H6O3
                     C4H72-1,4OOH      CH3OCHO           NC4KET24OH-3
                     C3H4CH2OH-1O      CH2CO             CHCHO
                     CH2COHCO          CCYCCO-T1         C3H5O
                     CJCYCCO           C4H8OOH2-3O2      C
                     C2H5O2            C4H72-2O2         C3KET21
                     CH2CHOCO          C3H3O             C4H2
                     C4H7O1-2OOH-3     HOCH2COCH2        C2H3
                     C4H61KET43        C4H72-1OOH        C4H71-4OOH
                     CO(CH2OOH)2       C3H6OOH1-3        C2H
                     TC4H9             CCYCCJO           NC4KET24OH-1
                     CH2COCH2          IQC3H6OT          HOCOCQ(CH3)2
                     cCH2COOCH2#       SQC4H7OHS-4O2     C3H6OOH2-1O2
                     HOCO              TQC4H8OI          CHOCH2CHCHOQ1
                     C4H5-2            IC3H6CO           IC4H8OOH-TO2
                     CJVCCVO           QC4H7OHP          CH4
                     C3H5-S            C4H61OOH4-3O2     C2H5CO
                     C4H71-O           C4H8OOH2-4        PC4H9O2
                     PC4H9O            C4H8OOH1-2O2      KCH3COCO3H
                     TQC4H7OHIQ-P      IC4KETII          QCH2CH(OOH)CHO
                     C3H3CH2O          TQC4H7OHIQ-I      C3H3CHO-OOH23
                     ET12IC4-1OOH      C4H513-OO2        C4H71-4O2
                     IC3H6CHO          IC4H8OH-IT        HCCO
                     C3H6              OHV               C3H6OH2-1
                     C4H3-I            C3H5CHOQ3-1O2     PQC4H7OHS-2
                     C4H72-2           C3H5-SOOH         C(OH)CY(COC)
                     CHOC3H4OH         C2H3CO            H2C4O
                     TC4H9O            CH2CHOOHCOCH3     TC3H5OO
                     C2H3COCH3         C2H6              C2H4
                     CH                CYC3H5OCHO        SC3H5OH
                     CH2CQCOHQ         CH3OCH2O          C3H6CHO-3O2
                     QCH2CH2CO3H       NC3H7O2           C4H7O2-3OOH-1
                     C3H3O2H           C4H63,1-3OH       CH3COCH2O
                     C3H5-T            C4H63,1-2OH       IC3H7OH
                     OCH2OCHO          IQC3H5OHPJ        C2H3CHOHCH2
                     C4H7O1-4OOH-2     C3H4CH2OH-3O      CC3H4
                     CH3OCH2O2         CH2CHCHOH         C2H3CHOHCH2OO
                     CC4H7O-IJ         C3H5CHOQ3-2       CHV
                     C2H2""",
          reactions='all',
          initial_state=state(temperature=300.0, pressure=OneAtm))

#-------------------------------------------------------------------------------
# Species data
#-------------------------------------------------------------------------------

species(name='HE',
        atoms='He:1',
        thermo=(NASA([200.00, 1000.00],
                     [ 2.50000000E+00,  0.00000000E+00,  0.00000000E+00,
                       0.00000000E+00,  0.00000000E+00, -7.45375000E+02,
                       9.28723974E-01]),
                NASA([1000.00, 6000.00],
                     [ 2.50000000E+00,  0.00000000E+00,  0.00000000E+00,
                       0.00000000E+00,  0.00000000E+00, -7.45375000E+02,
                       9.28723974E-01])))

species(name='C4H71-3OOH',
        atoms='C:4 H:8 O:2',
        thermo=(NASA([300.00, 1402.00],
                     [ 1.57205430E+00,  5.09799175E-02, -3.46252518E-05,
                       1.21001485E-08, -1.71484187E-12, -1.27789223E+04,
                       2.36553208E+01]),
                NASA([1402.00, 5000.00],
                     [ 1.56878552E+01,  1.84587978E-02, -6.26237062E-06,
                       9.66887500E-10, -5.58787900E-14, -1.77050056E+04,
                      -5.22788542E+01])))

species(name='C2H5CO2',
        atoms='C:3 H:5 O:2',
        thermo=(NASA([300.00, 1000.00],
                     [-5.86565380E-01,  4.51676880E-02, -3.62170690E-05,
                       1.07486380E-08,  9.16567390E-13, -2.77031310E+04,
                       2.91457820E+01]),
                NASA([1000.00, 4000.00],
                     [-7.67613650E+00,  4.22903930E-02, -1.75170080E-05,
                       3.21173690E-09, -2.18212330E-13, -2.32970820E+04,
                       7.44420620E+01])))

species(name='C3H6CHO-3',
        atoms='C:4 H:7 O:1',
        thermo=(NASA([300.00, 1680.00],
                     [ 2.50394898E+00,  3.52020899E-02, -1.49538799E-05,
                       1.51842245E-09,  3.26240930E-13, -2.56469857E+03,
                       1.89082252E+01]),
                NASA([1680.00, 5000.00],
                     [ 1.11057761E+01,  1.94829033E-02, -6.80219665E-06,
                       1.07611215E-09, -6.33985135E-14, -5.79319962E+03,
                      -2.85940360E+01])))

species(name='C3H5O32',
        atoms='C:3 H:5 O:3',
        thermo=(NASA([400.00, 1369.00],
                     [ 5.78082152E+00,  3.25728351E-02, -1.72708524E-05,
                       3.00679496E-09,  1.46350874E-13, -4.22755472E+03,
                       2.08334102E+00]),
                NASA([1369.00, 5000.00],
                     [ 1.69382410E+01,  1.10870012E-02, -3.92331771E-06,
                       6.23214564E-10, -3.67416907E-14, -8.51432760E+03,
                      -5.93880030E+01])))

species(name='C3H2(S)',
        atoms='C:3 H:2',
        thermo=(NASA([200.00, 1000.00],
                     [ 3.12747067E+00,  1.86432946E-02, -2.18682413E-05,
                       1.46536901E-08, -4.04603382E-12,  7.03086760E+04,
                       7.42959447E+00]),
                NASA([1000.00, 6000.00],
                     [ 5.58092176E+00,  7.88374719E-03, -3.74325522E-06,
                       8.68600548E-10, -7.98340783E-14,  6.98463690E+04,
                      -4.21771100E+00])))

species(name='CH3COCOHCH2',
        atoms='C:4 H:6 O:2',
        thermo=(NASA([300.00, 1402.00],
                     [ 8.59057199E-01,  5.69428355E-02, -5.43753744E-05,
                       2.68751657E-08, -5.22916470E-12, -3.97906140E+04,
                       2.15808510E+01]),
                NASA([1402.00, 5000.00],
                     [ 1.53830086E+01,  1.41536476E-02, -4.79752203E-06,
                       7.40059372E-10, -4.27362894E-14, -4.40165669E+04,
                      -5.33915258E+01])))

species(name='HO2CH2CHO',
        atoms='C:2 H:4 O:3',
        thermo=(NASA([300.00, 1391.00],
                     [-1.32768631E+00,  5.21618601E-02, -4.97327645E-05,
                       2.31272366E-08, -4.20787867E-12, -2.90608844E+04,
                       3.61860491E+01]),
                NASA([1391.00, 5000.00],
                     [ 1.51554685E+01,  7.57240000E-03, -2.72693024E-06,
                       4.38217189E-10, -2.60434287E-14, -3.41419680E+04,
                      -5.01255068E+01])))

species(name='CH3OCH2OH',
        atoms='C:2 H:6 O:2',
        thermo=(NASA([300.00, 2014.00],
                     [ 3.15851876E+00,  2.44325751E-02, -8.66984784E-06,
                      -5.93319328E-11,  4.36400003E-13, -4.54488899E+04,
                       1.30511235E+01]),
                NASA([2014.00, 5000.00],
                     [ 8.70981570E+00,  1.53602372E-02, -5.41003788E-06,
                       8.60573446E-10, -5.08819752E-14, -4.76607115E+04,
                      -1.80226702E+01])))

species(name='IIC4H7Q2-T',
        atoms='C:4 H:9 O:4',
        thermo=(NASA([300.00, 1379.00],
                     [ 4.05162864E+00,  5.52104766E-02, -2.96323166E-05,
                       5.83207271E-09,  7.32315096E-15, -1.59531744E+04,
                       1.98176067E+01]),
                NASA([1379.00, 5000.00],
                     [ 2.18350589E+01,  2.04316457E-02, -7.12958582E-06,
                       1.12205108E-09, -6.57258116E-14, -2.27472121E+04,
                      -7.79937167E+01])))

species(name='C4H6O23',
        atoms='C:4 H:6 O:1',
        thermo=(NASA([200.00, 1000.00],
                     [ 2.67053463E+00,  4.92586420E-03,  8.86967406E-05,
                      -1.26219194E-07,  5.23991321E-11, -1.02787872E+04,
                       1.45722395E+01]),
                NASA([1000.00, 5000.00],
                     [ 8.60658242E+00,  2.08310051E-02, -8.42229481E-06,
                       1.56717640E-09, -1.09391202E-13, -1.32392815E+04,
                      -2.32464750E+01])))

species(name='CH3CH(OOH)CO3',
        atoms='C:3 H:5 O:5',
        thermo=(NASA([300.00, 1000.00],
                     [ 2.49490590E-01,  6.12211490E-02, -4.71553430E-05,
                       1.51391570E-08, -1.82305880E-12, -3.88909140E+04,
                       3.51692620E+01]),
                NASA([1000.00, 5000.00],
                     [ 2.65837730E+01,  1.08096710E-03, -3.18919610E-08,
                      -1.96696910E-12,  2.42076220E-16, -4.74423010E+04,
                      -1.05571840E+02])))

species(name='C4H4O',
        atoms='C:4 H:4 O:1',
        thermo=(NASA([200.00, 1000.00],
                     [ 8.47469463E-01,  1.31773796E-02,  5.99735901E-05,
                      -9.71562904E-08,  4.22733796E-11, -5.36785445E+03,
                       2.14945172E+01]),
                NASA([1000.00, 6000.00],
                     [ 9.38935003E+00,  1.40291241E-02, -5.07755110E-06,
                       8.24137332E-10, -4.95319963E-14, -8.68241814E+03,
                      -2.79162920E+01])))

species(name='COHOOHCY(COC)',
        atoms='C:3 H:6 O:4',
        thermo=(NASA([300.00, 1394.00],
                     [-3.16180219E+00,  7.92240221E-02, -8.28674521E-05,
                       4.32049848E-08, -8.69506663E-12, -4.59891154E+04,
                       4.31128002E+01]),
                NASA([1394.00, 5000.00],
                     [ 1.78808618E+01,  1.47154928E-02, -5.11766843E-06,
                       8.03382779E-10, -4.69696797E-14, -5.19254526E+04,
                      -6.47302080E+01])))

species(name='C4H8OOH1-3',
        atoms='C:4 H:9 O:2',
        thermo=(NASA([300.00, 1396.00],
                     [ 2.46292502E+00,  4.70131194E-02, -2.42145198E-05,
                       4.65407810E-09,  1.62198662E-14, -3.95787917E+03,
                       2.24569578E+01]),
                NASA([1396.00, 5000.00],
                     [ 1.61247782E+01,  2.02420980E-02, -6.88631475E-06,
                       1.06534945E-09, -6.16599545E-14, -9.16802012E+03,
                      -5.26575415E+01])))

species(name='CH3CO2',
        atoms='C:2 H:3 O:2',
        thermo=(NASA([300.00, 1395.00],
                     [ 1.37440768E+00,  2.49115604E-02, -1.74308894E-05,
                       6.24799508E-09, -9.09516835E-13, -2.72330150E+04,
                       1.81405454E+01]),
                NASA([1395.00, 5000.00],
                     [ 8.54059736E+00,  8.32951214E-03, -2.84722010E-06,
                       4.41927196E-10, -2.56373394E-14, -2.97290678E+04,
                      -2.03883545E+01])))

species(name='PC4H8OH-1',
        atoms='C:4 H:9 O:1',
        thermo=(NASA([300.00, 1392.00],
                     [ 7.72566991E-01,  5.00429367E-02, -3.20163534E-05,
                       1.02913291E-08, -1.30709217E-12, -1.38421800E+04,
                       2.58928300E+01]),
                NASA([1392.00, 5000.00],
                     [ 1.47813217E+01,  1.89692972E-02, -6.38671427E-06,
                       9.81341181E-10, -5.65332084E-14, -1.88487062E+04,
                      -4.98892364E+01])))

species(name='C2H5CHOHCO',
        atoms='C:4 H:7 O:2',
        thermo=(NASA([300.00, 1389.00],
                     [-2.44749259E+00,  6.46308488E-02, -5.10457937E-05,
                       1.99850773E-08, -3.12214490E-12, -2.66670442E+04,
                       3.95566556E+01]),
                NASA([1389.00, 5000.00],
                     [ 1.82917246E+01,  1.48007410E-02, -5.24974573E-06,
                       8.35220286E-10, -4.92942253E-14, -3.36703722E+04,
                      -7.12363783E+01])))

species(name='PQC4H7OHS-4',
        atoms='C:4 H:9 O:3',
        thermo=(NASA([300.00, 1406.00],
                     [ 1.05580624E+00,  6.63031409E-02, -5.33304532E-05,
                       2.24236182E-08, -3.81872426E-12, -2.28230293E+04,
                       3.00396502E+01]),
                NASA([1406.00, 5000.00],
                     [ 1.92506324E+01,  1.95222852E-02, -6.59556833E-06,
                       1.01548124E-09, -5.85727970E-14, -2.86816224E+04,
                      -6.61047459E+01])))

species(name='IC4H8OH',
        atoms='C:4 H:9 O:1',
        thermo=(NASA([300.00, 1376.00],
                     [ 3.29612707E+00,  3.47649647E-02, -1.02505618E-05,
                      -2.04641931E-09,  1.18879408E-12, -1.45627247E+04,
                       1.58606320E+01]),
                NASA([1376.00, 5000.00],
                     [ 1.25605997E+01,  2.10637488E-02, -7.15019648E-06,
                       1.10439262E-09, -6.38428695E-14, -1.86203249E+04,
                      -3.67889430E+01])))

species(name='TQC3H5OHIO2',
        atoms='C:3 H:7 O:5',
        thermo=(NASA([300.00, 1387.00],
                     [ 2.11774097E+00,  7.25997025E-02, -6.81667819E-05,
                       3.13796075E-08, -5.68565078E-12, -4.35518506E+04,
                       2.23586550E+01]),
                NASA([1387.00, 5000.00],
                     [ 2.02916342E+01,  1.92145529E-02, -8.58823433E-06,
                       1.62509037E-09, -1.06225627E-13, -4.85976512E+04,
                      -7.10879629E+01])))

species(name='HCO',
        atoms='C:1 H:1 O:1',
        thermo=(NASA([200.00, 1000.00],
                     [ 4.23754610E+00, -3.32075257E-03,  1.40030264E-05,
                      -1.34239995E-08,  4.37416208E-12,  3.87241185E+03,
                       3.30834869E+00]),
                NASA([1000.00, 6000.00],
                     [ 3.92001542E+00,  2.52279324E-03, -6.71004164E-07,
                       1.05615948E-10, -7.43798261E-15,  3.65342928E+03,
                       3.58077056E+00])))

species(name='C2H4O2H',
        atoms='C:2 H:5 O:2',
        thermo=(NASA([300.00, 1389.00],
                     [ 2.75788364E+00,  2.88271987E-02, -2.08302264E-05,
                       8.47401397E-09, -1.48617610E-12,  3.00153893E+03,
                       1.59921711E+01]),
                NASA([1389.00, 5000.00],
                     [ 1.00590614E+01,  1.13378955E-02, -3.89403387E-06,
                       6.06090687E-10, -3.52212353E-14,  4.24048653E+02,
                      -2.32086536E+01])))

species(name='CCY(CCOC)OH',
        atoms='C:4 H:8 O:2',
        thermo=(NASA([300.00, 1404.00],
                     [-2.84914896E+00,  6.23736856E-02, -4.70326536E-05,
                       1.84908286E-08, -2.94976027E-12, -3.74257004E+04,
                       3.83163588E+01]),
                NASA([1404.00, 5000.00],
                     [ 1.43404718E+01,  1.98311504E-02, -6.60657660E-06,
                       1.00779570E-09, -5.77614335E-14, -4.30959414E+04,
                      -5.30535015E+01])))

species(name='CH2(OH)OCH2',
        atoms='C:3 H:5 O:2',
        thermo=(NASA([100.00, 1612.24],
                     [ 9.30847624E-01,  5.18764070E-02, -5.23342423E-05,
                       2.50763608E-08, -4.45101035E-12, -1.34774521E+04,
                       2.01548877E+01]),
                NASA([1612.24, 5000.00],
                     [ 1.60621297E+01,  5.02425259E-03, -8.09171812E-08,
                      -1.12692581E-10,  1.03557069E-14, -1.71463701E+04,
                      -5.63189208E+01])))

species(name='C4H10',
        atoms='C:4 H:10',
        thermo=(NASA([300.00, 1392.00],
                     [-9.20862487E-02,  4.69703816E-02, -2.54761945E-05,
                       6.35894738E-09, -5.16005946E-13, -1.69556758E+04,
                       2.49101571E+01]),
                NASA([1392.00, 5000.00],
                     [ 1.24923813E+01,  2.15951935E-02, -7.34277611E-06,
                       1.13529859E-09, -6.56730149E-14, -2.17598985E+04,
                      -4.41546866E+01])))

species(name='C4H63,1-1OH',
        atoms='C:4 H:7 O:1',
        thermo=(NASA([300.00, 1401.00],
                     [-5.96640682E-01,  5.31885124E-02, -4.34791765E-05,
                       1.86514084E-08, -3.23780972E-12, -6.15543596E+03,
                       2.74734171E+01]),
                NASA([1401.00, 5000.00],
                     [ 1.38675222E+01,  1.54795810E-02, -5.17720236E-06,
                       7.91828077E-10, -4.54656891E-14, -1.07655481E+04,
                      -4.87820652E+01])))

species(name='IC4QA-AOJ',
        atoms='C:4 H:7 O:3',
        thermo=(NASA([298.00, 1354.05],
                     [ 3.62743070E+00,  4.90249450E-02, -2.50052050E-05,
                       2.60292421E-09,  9.66410957E-13, -3.64403586E+03,
                       1.47200572E+01]),
                NASA([1354.05, 5000.00],
                     [ 1.47661285E+01,  2.60086280E-02, -1.15940233E-05,
                       2.30187864E-09, -1.68433886E-13, -7.43878376E+03,
                      -4.55257815E+01])))

species(name='IC4H7OOH',
        atoms='C:4 H:8 O:2',
        thermo=(NASA([300.00, 1425.00],
                     [-4.17611045E-01,  5.77650805E-02, -4.27135576E-05,
                       1.66549177E-08, -2.61827018E-12, -1.19563554E+04,
                       3.26001977E+01]),
                NASA([1425.00, 5000.00],
                     [ 1.44778130E+01,  2.00176051E-02, -6.38000134E-06,
                       9.43456882E-10, -5.28823593E-14, -1.67207530E+04,
                      -4.61591612E+01])))

species(name='C4H61-3OOH4',
        atoms='C:4 H:7 O:2',
        thermo=(NASA([300.00, 1386.00],
                     [ 9.87401421E-01,  5.18591379E-02, -3.67576063E-05,
                       1.30998708E-08, -1.88471106E-12,  6.32645285E+03,
                       2.56429879E+01]),
                NASA([1386.00, 5000.00],
                     [ 1.68744844E+01,  1.56488910E-02, -5.46061738E-06,
                       8.59386003E-10, -5.03396686E-14,  7.26846315E+02,
                      -5.99891572E+01])))

species(name='C2H3OO',
        atoms='C:2 H:3 O:2',
        thermo=(NASA([298.15, 1000.00],
                     [ 1.09784776E+00,  2.95333237E-02, -2.27744360E-05,
                       7.20559155E-09, -3.07929092E-13,  1.13996101E+04,
                       2.13563583E+01]),
                NASA([1000.00, 2000.00],
                     [ 6.04483828E+00,  1.45511127E-02, -7.50974622E-06,
                       1.83488280E-09, -1.66689681E-13,  1.01699244E+04,
                      -3.71144913E+00])))

species(name='H2O',
        atoms='H:2 O:1',
        thermo=(NASA([200.00, 1000.00],
                     [ 4.19863520E+00, -2.03640170E-03,  6.52034160E-06,
                      -5.48792690E-09,  1.77196800E-12, -3.02937260E+04,
                      -8.49009010E-01]),
                NASA([1000.00, 6000.00],
                     [ 2.67703890E+00,  2.97318160E-03, -7.73768890E-07,
                       9.44335140E-11, -4.26899910E-15, -2.98858940E+04,
                       6.88255000E+00])))

species(name='NC4KET23OH',
        atoms='C:4 H:8 O:2',
        thermo=(NASA([300.00, 1386.00],
                     [ 1.64761234E+00,  4.74122084E-02, -2.72508571E-05,
                       7.25755846E-09, -6.68682869E-13, -5.04946247E+04,
                       2.37800424E+01]),